
     RDKit          3D

 28 29  0  0  0  0  0  0  0  0999 V2000
   27.6168   34.3991  104.7966 C   0  0  0  0  0  0  0  0  0  0  0  0
   24.3319   33.9120  104.8319 C   0  0  0  0  0  0  0  0  0  0  0  0
   20.3996   34.2333  107.1643 O   0  0  0  0  0  0  0  0  0  0  0  0
   24.9748   35.9233   99.1038 C   0  0  0  0  0  0  0  0  0  0  0  0
   22.6842   33.9928  106.3405 C   0  0  0  0  0  0  0  0  0  0  0  0
   23.9855   34.2281  106.0917 N   0  0  0  0  0  0  0  0  0  0  0  0
   31.5799   32.5168  103.0741 C   0  0  0  0  0  0  0  0  0  0  0  0
   21.7409   34.7902  107.2447 C   0  0  0  0  0  0  0  0  0  0  0  0
   27.9204   34.4892   97.5459 O   0  0  0  0  0  0  0  0  0  0  0  0
   28.9002   34.6844  104.0260 C   0  0  0  0  0  0  0  0  0  0  0  0
   29.4242   35.9786  103.8111 C   0  0  0  0  0  0  0  0  0  0  0  0
   23.8960   36.7412   99.8868 C   0  0  0  0  0  0  0  0  0  0  0  0
   28.7331   37.0544  103.9186 O   0  0  0  0  0  0  0  0  0  0  0  0
   25.2943   34.6664  104.0240 C   0  0  0  0  0  0  0  0  0  0  0  0
   24.9002   34.4973  107.2471 C   0  0  0  0  0  0  0  0  0  0  0  0
   25.8583   35.6378   97.9150 C   0  0  0  0  0  0  0  0  0  0  0  0
   25.2299   34.5602  102.5638 C   0  0  0  0  0  0  0  0  0  0  0  0
   30.9128   33.7272  103.3507 C   0  0  0  0  0  0  0  0  0  0  0  0
   29.5947   33.6105  103.6570 C   0  0  0  0  0  0  0  0  0  0  0  0
   31.4809   34.9425  103.2569 N   0  0  0  0  0  0  0  0  0  0  0  0
   25.5279   35.0204  100.1861 O   0  0  0  0  0  0  0  0  0  0  0  0
   26.1319   36.6197  101.7883 O   0  0  0  0  0  0  0  0  0  0  0  0
   26.9423   34.6627   98.4658 C   0  0  0  0  0  0  0  0  0  0  0  0
   26.4338   35.3101  104.6738 C   0  0  0  0  0  0  0  0  0  0  0  0
   22.2932   33.1181  105.3685 C   0  0  0  0  0  0  0  0  0  0  0  0
   23.3748   33.0548  104.3997 C   0  0  0  0  0  0  0  0  0  0  0  0
   30.7751   35.9990  103.4644 N   0  0  0  0  0  0  0  0  0  0  0  0
   25.5645   35.5378  101.5007 C   0  0  0  0  0  0  0  0  0  0  0  0
  1 10  1  0
  1 24  1  0
  2  6  1  0
  2 14  1  0
  2 26  1  0
  3  8  1  0
  4 12  1  0
  4 16  1  0
  4 21  1  0
  5  6  1  0
  5  8  1  0
  5 25  1  0
  6 15  1  0
  7 18  1  0
  9 23  1  0
 10 11  1  0
 10 19  1  0
 11 13  2  0
 11 27  1  0
 14 17  1  0
 14 24  1  0
 16 23  1  0
 17 28  1  0
 18 19  2  0
 18 20  1  0
 20 27  2  0
 21 28  1  0
 22 28  2  0
 25 26  1  0
M  END
$$$$
