
     RDKit          3D

 29 31  0  0  0  0  0  0  0  0999 V2000
   29.7462   34.6660  104.1526 C   0  0  0  0  0  0  0  0  0  0  0  0
   25.6531   35.0119  103.1562 N   0  0  0  0  0  0  0  0  0  0  0  0
   24.7632   36.9225   99.6821 N   0  0  0  0  0  0  0  0  0  0  0  0
   32.4830   33.8283  102.0392 O   0  0  0  0  0  0  0  0  0  0  0  0
   24.1218   35.1753  101.2257 C   0  0  0  0  0  0  0  0  0  0  0  0
   24.6942   36.1600  105.2632 O   0  0  0  0  0  0  0  0  0  0  0  0
   26.1355   36.5235  101.4781 C   0  0  0  0  0  0  0  0  0  0  0  0
   30.0763   36.9246  103.4814 O   0  0  0  0  0  0  0  0  0  0  0  0
   23.5768   33.7177  107.4090 C   0  0  0  0  0  0  0  0  0  0  0  0
   25.8634   37.1765  100.4012 C   0  0  0  0  0  0  0  0  0  0  0  0
   26.8933   35.3268  103.7284 C   0  0  0  0  0  0  0  0  0  0  0  0
   32.1503   34.3222  104.9630 C   0  0  0  0  0  0  0  0  0  0  0  0
   24.2944   34.6906  106.8038 N   0  0  0  0  0  0  0  0  0  0  0  0
   27.3614   34.4448  104.7541 C   0  0  0  0  0  0  0  0  0  0  0  0
   25.0565   34.9351  105.7130 C   0  0  0  0  0  0  0  0  0  0  0  0
   25.2661   35.5257  101.9474 C   0  0  0  0  0  0  0  0  0  0  0  0
   27.8635   36.2627  103.3989 C   0  0  0  0  0  0  0  0  0  0  0  0
   32.0918   33.6778  103.4946 C   0  0  0  0  0  0  0  0  0  0  0  0
   30.6376   33.6265  103.3924 C   0  0  0  0  0  0  0  0  0  0  0  0
   28.6176   33.9658  104.6755 C   0  0  0  0  0  0  0  0  0  0  0  0
   30.9033   35.0288  105.1003 O   0  0  0  0  0  0  0  0  0  0  0  0
   29.2104   36.0278  103.6566 C   0  0  0  0  0  0  0  0  0  0  0  0
   30.1374   32.6924  102.4293 C   0  0  0  0  0  0  0  0  0  0  0  0
   26.8618   33.9718  107.0410 O   0  0  0  0  0  0  0  0  0  0  0  0
   23.8853   35.9102  100.0363 C   0  0  0  0  0  0  0  0  0  0  0  0
   22.7711   32.8095  106.5967 C   0  0  0  0  0  0  0  0  0  0  0  0
   23.6731   33.7485  108.7187 O   0  0  0  0  0  0  0  0  0  0  0  0
   22.8296   35.6478   99.2356 N   0  0  0  0  0  0  0  0  0  0  0  0
   26.3595   34.2902  105.7978 C   0  0  0  0  0  0  0  0  0  0  0  0
  1 19  1  0
  1 20  1  0
  1 21  1  0
  1 22  1  0
  2 11  1  0
  2 16  2  3
  3 10  1  0
  3 25  1  0
  4 18  1  0
  5 16  1  0
  5 25  1  0
  6 15  2  0
  7 10  2  0
  7 16  1  0
  8 22  2  0
  9 13  1  0
  9 26  1  0
  9 27  2  0
 11 14  1  0
 11 17  1  0
 12 18  1  0
 12 21  1  0
 13 15  1  0
 14 20  1  0
 14 29  1  0
 15 29  1  0
 17 22  1  0
 18 19  1  0
 19 23  1  0
 24 29  1  0
 25 28  2  0
M  END
$$$$
