
     RDKit          3D

 24 26  0  0  0  0  0  0  0  0999 V2000
   26.6640   36.9751  101.4372 O   0  0  0  0  0  0  0  0  0  0  0  0
   25.5630   36.4828  101.0841 C   0  0  0  0  0  0  0  0  0  0  0  0
   23.0615   34.8331  106.5813 O   0  0  0  0  0  0  0  0  0  0  0  0
   24.9275   34.0126  107.8462 C   0  0  0  0  0  0  0  0  0  0  0  0
   23.5864   35.3550  101.1189 N   0  0  0  0  0  0  0  0  0  0  0  0
   27.1622   34.3066  104.1870 C   0  0  0  0  0  0  0  0  0  0  0  0
   25.1843   34.9538  102.9648 C   0  0  0  0  0  0  0  0  0  0  0  0
   30.5460   34.4164  105.6978 C   0  0  0  0  0  0  0  0  0  0  0  0
   26.2212   33.5386  107.8807 O   0  0  0  0  0  0  0  0  0  0  0  0
   30.8059   33.9541  103.3654 C   0  0  0  0  0  0  0  0  0  0  0  0
   26.4392   34.4107  105.4818 C   0  0  0  0  0  0  0  0  0  0  0  0
   29.1902   34.4250  105.5436 C   0  0  0  0  0  0  0  0  0  0  0  0
   23.6878   36.1140   99.9731 N   0  0  0  0  0  0  0  0  0  0  0  0
   26.5233   34.9776  103.1938 N   0  0  0  0  0  0  0  0  0  0  0  0
   24.7054   35.5103  101.7444 C   0  0  0  0  0  0  0  0  0  0  0  0
   25.0042   34.4434  105.3117 C   0  0  0  0  0  0  0  0  0  0  0  0
   24.2075   34.1085  106.5002 C   0  0  0  0  0  0  0  0  0  0  0  0
   31.3626   34.2021  104.6070 C   0  0  0  0  0  0  0  0  0  0  0  0
   24.4216   34.6266  104.0577 N   0  0  0  0  0  0  0  0  0  0  0  0
   28.6239   34.2120  104.3144 C   0  0  0  0  0  0  0  0  0  0  0  0
   31.5844   33.6634  102.2725 C   0  0  0  0  0  0  0  0  0  0  0  0
   24.8469   36.8223   99.9767 N   0  0  0  0  0  0  0  0  0  0  0  0
   32.6806   33.8447  101.7437 O   0  0  0  0  0  0  0  0  0  0  0  0
   29.4300   33.9518  103.2134 C   0  0  0  0  0  0  0  0  0  0  0  0
  1  2  2  0
  2 15  1  0
  2 22  1  0
  3 17  1  0
  4  9  1  0
  4 17  1  0
  5 13  1  0
  5 15  1  0
  6 11  1  0
  6 14  1  0
  6 20  1  0
  7 14  1  0
  7 15  1  0
  7 19  2  0
  8 12  1  0
  8 18  2  0
 10 18  1  0
 10 21  1  0
 10 24  2  0
 11 16  1  0
 12 20  2  0
 13 22  1  0
 16 17  1  0
 16 19  1  0
 20 24  1  0
 21 23  2  0
M  END
$$$$
