
     RDKit          3D

 21 24  0  0  0  0  0  0  0  0999 V2000
  -16.9901   -5.9788    5.4628 C   0  0  0  0  0  0  0  0  0  0  0  0
  -20.7692   -6.7314    5.6848 N   0  0  0  0  0  0  0  0  0  0  0  0
  -19.1615   -7.2564    4.2710 C   0  0  0  0  0  0  0  0  0  0  0  0
  -17.9628   -7.1476    3.6358 C   0  0  0  0  0  0  0  0  0  0  0  0
  -16.9031   -6.5591    4.2344 C   0  0  0  0  0  0  0  0  0  0  0  0
  -21.5099   -6.0011    6.5702 C   0  0  0  0  0  0  0  0  0  0  0  0
  -20.2885   -8.1269    3.7814 C   0  0  0  0  0  0  0  0  0  0  0  0
  -15.7456   -6.5775    3.5838 N   0  0  0  0  0  0  0  0  0  0  0  0
  -11.8864   -6.5347    4.7033 C   0  0  0  0  0  0  0  0  0  0  0  0
  -12.8175   -6.1122    5.6595 C   0  0  0  0  0  0  0  0  0  0  0  0
  -14.5101   -6.4058    3.9712 C   0  0  0  0  0  0  0  0  0  0  0  0
  -21.1969   -9.2070    1.6527 C   0  0  0  0  0  0  0  0  0  0  0  0
  -13.5501   -6.6724    3.0107 C   0  0  0  0  0  0  0  0  0  0  0  0
  -19.3964   -6.5850    5.3925 C   0  0  0  0  0  0  0  0  0  0  0  0
  -18.3184   -5.8993    6.0574 C   0  0  0  0  0  0  0  0  0  0  0  0
  -10.5822   -6.8295    5.0462 O   0  0  0  0  0  0  0  0  0  0  0  0
  -20.1011   -8.3731    2.2567 C   0  0  0  0  0  0  0  0  0  0  0  0
  -12.2474   -6.7156    3.3726 C   0  0  0  0  0  0  0  0  0  0  0  0
  -14.2755   -6.0026    5.2905 C   0  0  0  0  0  0  0  0  0  0  0  0
  -15.6190   -5.6482    5.9351 C   0  0  0  0  0  0  0  0  0  0  0  0
  -21.4605   -7.5416    4.5839 C   0  0  0  0  0  0  0  0  0  0  0  0
  1  5  1  0
  1 15  2  0
  1 20  1  0
  2  6  1  0
  2 14  1  0
  2 21  1  0
  3  4  1  0
  3  7  1  0
  3 14  2  0
  4  5  2  0
  5  8  1  0
  7 17  1  0
  7 21  1  0
  8 11  2  0
  9 10  2  0
  9 16  1  0
  9 18  1  0
 10 19  1  0
 11 13  1  0
 11 19  1  0
 12 17  1  0
 13 18  2  0
 14 15  1  0
 19 20  1  0
M  END
$$$$
