
     RDKit          3D

 20 21  0  0  0  0  0  0  0  0999 V2000
  -10.9011   -6.8765    3.9976 O   0  0  0  0  0  0  0  0  0  0  0  0
  -24.2338   -6.7657    5.7992 C   0  0  0  0  0  0  0  0  0  0  0  0
  -18.9464   -5.2962    5.5207 C   0  0  0  0  0  0  0  0  0  0  0  0
  -17.8154   -6.4054    3.2934 C   0  0  0  0  0  0  0  0  0  0  0  0
  -23.2590   -7.0613    4.6321 C   0  0  0  0  0  0  0  0  0  0  0  0
  -14.5402   -6.6044    5.8229 O   0  0  0  0  0  0  0  0  0  0  0  0
  -19.1991   -6.3023    3.3950 C   0  0  0  0  0  0  0  0  0  0  0  0
  -14.4908   -6.2558    4.6865 C   0  0  0  0  0  0  0  0  0  0  0  0
  -22.4297   -5.9522    3.9101 C   0  0  0  0  0  0  0  0  0  0  0  0
  -15.6239   -6.0277    4.0225 N   0  0  0  0  0  0  0  0  0  0  0  0
  -17.5722   -5.4290    5.4065 C   0  0  0  0  0  0  0  0  0  0  0  0
  -19.7639   -5.7474    4.5048 C   0  0  0  0  0  0  0  0  0  0  0  0
  -21.5247   -4.5437    5.5211 C   0  0  0  0  0  0  0  0  0  0  0  0
  -21.1375   -5.6549    4.5892 N   0  0  0  0  0  0  0  0  0  0  0  0
  -11.8958   -6.8129    5.9086 O   0  0  0  0  0  0  0  0  0  0  0  0
  -16.9655   -5.9634    4.2814 C   0  0  0  0  0  0  0  0  0  0  0  0
  -24.0242   -5.2874    5.9578 O   0  0  0  0  0  0  0  0  0  0  0  0
  -13.2266   -6.3644    3.8920 C   0  0  0  0  0  0  0  0  0  0  0  0
  -22.7374   -4.9628    6.3404 C   0  0  0  0  0  0  0  0  0  0  0  0
  -12.0099   -6.6207    4.6499 N   0  0  0  0  0  0  0  0  0  0  0  0
  1 20  1  0
  2  5  1  0
  2 17  1  0
  3 11  1  0
  3 12  1  0
  4  7  1  0
  4 16  1  0
  5  9  1  0
  6  8  2  0
  7 12  2  0
  8 10  1  0
  8 18  1  0
  9 14  1  0
 10 16  1  0
 11 16  2  0
 12 14  1  0
 13 14  1  0
 13 19  1  0
 15 20  1  0
 17 19  1  0
 18 20  1  0
M  END
$$$$
