
     RDKit          3D

 27 28  0  0  0  0  0  0  0  0999 V2000
  -19.6424   -5.9650    3.8449 C   0  0  0  0  0  0  0  0  0  0  0  0
  -21.6929   -5.5004    5.0391 C   0  0  0  0  0  0  0  0  0  0  0  0
  -24.2370   -4.8392    4.6121 C   0  0  0  0  0  0  0  0  0  0  0  0
  -21.0666   -6.2377    3.9407 C   0  0  0  0  0  0  0  0  0  0  0  0
  -16.9584   -6.2548    4.0637 C   0  0  0  0  0  0  0  0  0  0  0  0
   -9.9818   -7.9327    3.3152 N   0  0  0  0  0  0  0  0  0  0  0  0
  -24.4575   -4.7079    3.1713 C   0  0  0  0  0  0  0  0  0  0  0  0
   -9.5737   -7.2317    4.3816 C   0  0  0  0  0  0  0  0  0  0  0  0
  -11.2128   -1.2336   -2.2197 C   0  0  0  0  0  0  0  0  0  0  0  0
  -15.6656   -5.9334    4.2656 N   0  0  0  0  0  0  0  0  0  0  0  0
  -25.7976   -4.4850    2.8234 C   0  0  0  0  0  0  0  0  0  0  0  0
  -12.9834   -6.5093    4.2931 N   0  0  0  0  0  0  0  0  0  0  0  0
  -19.0083   -5.6458    5.0821 N   0  0  0  0  0  0  0  0  0  0  0  0
  -23.1422   -5.6975    5.1055 C   0  0  0  0  0  0  0  0  0  0  0  0
  -14.9904   -6.0682    5.1999 C   0  0  0  0  0  0  0  0  0  0  0  0
  -13.5793   -5.9777    5.2980 C   0  0  0  0  0  0  0  0  0  0  0  0
  -25.3876   -4.9417    5.2604 O   0  0  0  0  0  0  0  0  0  0  0  0
  -19.6629   -5.8598    6.3201 C   0  0  0  0  0  0  0  0  0  0  0  0
  -21.0853   -5.7325    6.3293 C   0  0  0  0  0  0  0  0  0  0  0  0
  -11.6229   -1.7547   -3.3698 O   0  0  0  0  0  0  0  0  0  0  0  0
  -26.1986   -3.9259    5.0352 C   0  0  0  0  0  0  0  0  0  0  0  0
  -10.6396   -6.6977    4.9075 N   0  0  0  0  0  0  0  0  0  0  0  0
  -26.1893   -3.4440    3.7029 C   0  0  0  0  0  0  0  0  0  0  0  0
  -17.6489   -5.6555    5.1981 C   0  0  0  0  0  0  0  0  0  0  0  0
  -11.7985   -2.0120   -1.0422 C   0  0  0  0  0  0  0  0  0  0  0  0
  -11.2571   -7.7433    3.1311 N   0  0  0  0  0  0  0  0  0  0  0  0
  -11.7137   -6.9239    4.1763 C   0  0  0  0  0  0  0  0  0  0  0  0
  1  4  1  0
  1 13  1  0
  2  4  1  0
  2 14  1  0
  2 19  1  0
  3  7  1  0
  3 14  1  0
  3 17  1  0
  5 10  1  0
  5 24  1  0
  6  8  1  0
  6 26  1  0
  7 11  1  0
  8 22  1  0
  9 20  1  0
  9 25  1  0
 10 15  2  3
 11 23  1  0
 12 16  1  0
 12 27  2  3
 13 18  1  0
 13 24  1  0
 15 16  1  0
 17 21  1  0
 18 19  2  0
 21 23  1  0
 22 27  1  0
 26 27  1  0
M  END
$$$$
