
     RDKit          3D

 14 14  0  0  0  0  0  0  0  0999 V2000
  -12.0516   -6.4526    5.0611 C   0  0  0  0  0  0  0  0  0  0  0  0
  -11.0234   -5.6617    5.0448 O   0  0  0  0  0  0  0  0  0  0  0  0
  -17.1752   -6.6555    3.6892 C   0  0  0  0  0  0  0  0  0  0  0  0
  -12.6947   -6.6607    3.7285 C   0  0  0  0  0  0  0  0  0  0  0  0
  -15.7099   -5.2247    5.1339 C   0  0  0  0  0  0  0  0  0  0  0  0
  -19.1357   -6.6744    5.6636 C   0  0  0  0  0  0  0  0  0  0  0  0
  -18.3669   -7.3026    3.4904 C   0  0  0  0  0  0  0  0  0  0  0  0
  -16.9832   -5.9912    4.9085 C   0  0  0  0  0  0  0  0  0  0  0  0
  -14.0513   -6.4197    3.7551 N   0  0  0  0  0  0  0  0  0  0  0  0
  -17.9699   -6.0004    5.8783 C   0  0  0  0  0  0  0  0  0  0  0  0
  -14.4290   -5.8168    5.1026 C   0  0  0  0  0  0  0  0  0  0  0  0
  -12.4069   -7.0407    6.1486 O   0  0  0  0  0  0  0  0  0  0  0  0
  -12.0114   -7.1845    2.8168 O   0  0  0  0  0  0  0  0  0  0  0  0
  -19.3319   -7.3236    4.4859 C   0  0  0  0  0  0  0  0  0  0  0  0
  1  2  2  0
  1  4  1  0
  1 12  1  0
  3  7  2  0
  3  8  1  0
  4  9  1  0
  4 13  2  0
  5  8  1  0
  5 11  1  0
  6 10  1  0
  6 14  2  0
  7 14  1  0
  8 10  2  0
  9 11  1  0
M  END
$$$$
