
     RDKit          3D

 12 12  0  0  0  0  0  0  0  0999 V2000
  -13.6865   -6.4567    4.2378 N   0  0  0  0  0  0  0  0  0  0  0  0
  -12.1251   -6.6636    5.8926 N   0  0  0  0  0  0  0  0  0  0  0  0
  -18.7848   -5.7296    5.0638 C   0  0  0  0  0  0  0  0  0  0  0  0
  -15.9984   -5.9430    4.9260 C   0  0  0  0  0  0  0  0  0  0  0  0
  -16.7589   -5.8091    3.7842 C   0  0  0  0  0  0  0  0  0  0  0  0
  -18.0545   -5.9551    6.1950 C   0  0  0  0  0  0  0  0  0  0  0  0
  -16.6920   -6.0694    6.1233 C   0  0  0  0  0  0  0  0  0  0  0  0
  -14.5788   -5.7956    4.9472 C   0  0  0  0  0  0  0  0  0  0  0  0
  -18.1427   -5.6828    3.8547 C   0  0  0  0  0  0  0  0  0  0  0  0
  -20.1127   -5.5394    5.1459 F   0  0  0  0  0  0  0  0  0  0  0  0
  -11.3712   -6.9629    3.7235 C   0  0  0  0  0  0  0  0  0  0  0  0
  -12.3801   -6.5466    4.6819 C   0  0  0  0  0  0  0  0  0  0  0  0
  1  8  1  0
  1 12  1  0
  2 12  2  0
  3  6  1  0
  3  9  2  0
  3 10  1  0
  4  5  2  0
  4  7  1  0
  4  8  1  0
  5  9  1  0
  6  7  2  0
 11 12  1  0
M  END
$$$$
