
     RDKit          3D

  9  8  0  0  0  0  0  0  0  0999 V2000
  -15.6026   -5.8523    4.0860 C   0  0  0  0  0  0  0  0  0  0  0  0
  -19.2359   -5.7268    4.1788 C   0  0  0  0  0  0  0  0  0  0  0  0
  -12.9241   -6.4885    3.8484 O   0  0  0  0  0  0  0  0  0  0  0  0
  -17.3650   -6.0329    5.7450 C   0  0  0  0  0  0  0  0  0  0  0  0
  -13.3053   -6.4787    5.0071 C   0  0  0  0  0  0  0  0  0  0  0  0
  -16.8508   -5.2079    4.5943 C   0  0  0  0  0  0  0  0  0  0  0  0
  -18.0148   -6.6547    4.5474 C   0  0  0  0  0  0  0  0  0  0  0  0
  -12.5425   -6.6764    5.9823 O   0  0  0  0  0  0  0  0  0  0  0  0
  -14.8403   -6.5870    5.2506 C   0  0  0  0  0  0  0  0  0  0  0  0
  1  6  1  0
  1  9  1  0
  2  7  1  0
  3  5  2  0
  4  6  1  0
  4  7  1  0
  5  8  1  0
  5  9  1  0
M  END
$$$$
