
     RDKit          3D

 21 24  0  0  0  0  0  0  0  0999 V2000
  -17.2843   -5.9934    5.5813 C   0  0  0  0  0  0  0  0  0  0  0  0
  -21.0614   -6.9183    5.8086 C   0  0  0  0  0  0  0  0  0  0  0  0
  -19.5391   -8.1699    3.5532 C   0  0  0  0  0  0  0  0  0  0  0  0
  -18.9745   -7.1309    4.3308 C   0  0  0  0  0  0  0  0  0  0  0  0
  -17.6869   -6.5167    4.2857 C   0  0  0  0  0  0  0  0  0  0  0  0
  -21.5902   -6.2496    6.6792 O   0  0  0  0  0  0  0  0  0  0  0  0
  -20.9440   -8.6638    3.8694 N   0  0  0  0  0  0  0  0  0  0  0  0
  -15.4816   -5.9652    3.8598 N   0  0  0  0  0  0  0  0  0  0  0  0
  -11.6689   -6.6788    4.7104 C   0  0  0  0  0  0  0  0  0  0  0  0
  -12.5305   -5.9826    5.6890 C   0  0  0  0  0  0  0  0  0  0  0  0
  -15.0531   -5.7700    5.0092 C   0  0  0  0  0  0  0  0  0  0  0  0
  -21.2362   -9.0194    2.4322 C   0  0  0  0  0  0  0  0  0  0  0  0
  -16.7571   -6.2531    3.4574 C   0  0  0  0  0  0  0  0  0  0  0  0
  -19.6639   -6.7691    5.5104 C   0  0  0  0  0  0  0  0  0  0  0  0
  -18.5675   -5.8979    6.6135 S   0  0  0  0  0  0  0  0  0  0  0  0
  -10.5371   -6.9182    4.8010 O   0  0  0  0  0  0  0  0  0  0  0  0
  -19.8387   -8.1009    2.0455 C   0  0  0  0  0  0  0  0  0  0  0  0
  -11.9775   -6.8643    3.5473 O   0  0  0  0  0  0  0  0  0  0  0  0
  -13.7190   -5.7319    5.4849 N   0  0  0  0  0  0  0  0  0  0  0  0
  -16.1816   -5.7095    5.7229 C   0  0  0  0  0  0  0  0  0  0  0  0
  -21.8432   -7.7347    4.6713 C   0  0  0  0  0  0  0  0  0  0  0  0
  1  5  1  0
  1 15  1  0
  1 20  2  0
  2  6  2  0
  2 14  1  0
  2 21  1  0
  3  4  1  0
  3  7  1  0
  3 17  1  0
  4  5  1  0
  4 14  1  0
  5 13  1  0
  7 12  1  0
  7 21  1  0
  8 11  2  0
  8 13  1  0
  9 10  1  0
  9 16  2  0
  9 18  1  0
 10 19  1  0
 11 19  1  0
 11 20  1  0
 12 17  1  0
 14 15  1  0
M  END
$$$$
