
     RDKit          3D

 20 22  0  0  0  0  0  0  0  0999 V2000
  -10.4561   -6.9869    4.6655 O   0  0  0  0  0  0  0  0  0  0  0  0
  -23.7124   -7.1560    5.9084 C   0  0  0  0  0  0  0  0  0  0  0  0
  -18.0031   -5.6774    5.9512 C   0  0  0  0  0  0  0  0  0  0  0  0
  -18.6724   -5.8838    4.6833 C   0  0  0  0  0  0  0  0  0  0  0  0
  -23.1185   -7.4314    4.5414 C   0  0  0  0  0  0  0  0  0  0  0  0
  -13.8227   -5.3850    5.5501 O   0  0  0  0  0  0  0  0  0  0  0  0
  -17.6052   -6.1459    3.6991 C   0  0  0  0  0  0  0  0  0  0  0  0
  -13.9815   -6.3073    4.7707 C   0  0  0  0  0  0  0  0  0  0  0  0
  -22.3148   -6.2442    4.1155 C   0  0  0  0  0  0  0  0  0  0  0  0
  -15.0193   -6.1693    3.9082 N   0  0  0  0  0  0  0  0  0  0  0  0
  -16.6351   -5.7815    5.8538 C   0  0  0  0  0  0  0  0  0  0  0  0
  -19.9938   -5.7753    4.5099 C   0  0  0  0  0  0  0  0  0  0  0  0
  -20.7498   -5.1926    5.6928 C   0  0  0  0  0  0  0  0  0  0  0  0
  -20.8716   -6.5601    3.7743 N   0  0  0  0  0  0  0  0  0  0  0  0
  -12.2110   -6.9544    5.9728 O   0  0  0  0  0  0  0  0  0  0  0  0
  -16.3268   -6.0888    4.3705 C   0  0  0  0  0  0  0  0  0  0  0  0
  -22.9164   -6.0417    6.4041 O   0  0  0  0  0  0  0  0  0  0  0  0
  -12.6627   -6.7687    4.2378 C   0  0  0  0  0  0  0  0  0  0  0  0
  -22.2145   -5.3999    5.3694 C   0  0  0  0  0  0  0  0  0  0  0  0
  -11.5891   -6.8025    5.1072 N   0  0  0  0  0  0  0  0  0  0  0  0
  1 20  1  0
  2  5  1  0
  2 17  1  0
  3  4  1  0
  3 11  1  0
  4  7  1  0
  4 12  1  0
  5  9  1  0
  6  8  1  0
  7 16  1  0
  8 10  1  0
  8 18  1  0
  9 14  1  0
  9 19  1  0
 10 16  1  0
 11 16  1  0
 12 13  1  0
 12 14  1  0
 13 19  1  0
 15 20  1  0
 17 19  1  0
 18 20  1  0
M  END
$$$$
