
     RDKit          3D

 15 15  0  0  0  0  0  0  0  0999 V2000
  -12.2869   -6.9520    6.0176 N   0  0  0  0  0  0  0  0  0  0  0  0
  -10.0375   -7.1759    4.2552 N   0  0  0  0  0  0  0  0  0  0  0  0
  -18.7469   -4.0924    4.3979 C   0  0  0  0  0  0  0  0  0  0  0  0
  -19.5261   -7.7557    4.4159 C   0  0  0  0  0  0  0  0  0  0  0  0
  -12.1067   -6.9003    3.8976 N   0  0  0  0  0  0  0  0  0  0  0  0
  -18.3275   -7.1394    4.8646 C   0  0  0  0  0  0  0  0  0  0  0  0
  -18.7652   -5.3361    3.6103 C   0  0  0  0  0  0  0  0  0  0  0  0
  -15.4809   -6.6753    4.8045 C   0  0  0  0  0  0  0  0  0  0  0  0
  -11.1366   -7.2668    3.8383 C   0  0  0  0  0  0  0  0  0  0  0  0
  -17.7239   -6.2665    3.9188 C   0  0  0  0  0  0  0  0  0  0  0  0
  -14.2544   -6.1565    4.8131 C   0  0  0  0  0  0  0  0  0  0  0  0
  -19.9797   -5.8247    3.0002 C   0  0  0  0  0  0  0  0  0  0  0  0
  -20.6101   -6.8352    3.9372 C   0  0  0  0  0  0  0  0  0  0  0  0
  -16.4365   -5.6855    4.2950 C   0  0  0  0  0  0  0  0  0  0  0  0
  -12.9683   -6.6553    4.9753 C   0  0  0  0  0  0  0  0  0  0  0  0
  1 15  2  0
  2  9  2  0
  3  7  1  0
  4  6  1  0
  4 13  1  0
  5  9  1  0
  5 15  1  0
  6 10  1  0
  7 10  1  0
  7 12  1  0
  8 11  1  0
  8 14  1  0
 10 14  1  0
 11 15  1  0
 12 13  1  0
M  END
$$$$
