
     RDKit          3D

 19 21  0  0  0  0  0  0  0  0999 V2000
  -21.4792   -7.9641    5.0308 C   0  0  0  0  0  0  0  0  0  0  0  0
  -16.7778   -6.3668    4.3915 C   0  0  0  0  0  0  0  0  0  0  0  0
  -11.5009   -6.4541    5.2895 C   0  0  0  0  0  0  0  0  0  0  0  0
  -14.4001   -6.1662    4.6799 C   0  0  0  0  0  0  0  0  0  0  0  0
  -13.0914   -6.8038    4.4989 C   0  0  0  0  0  0  0  0  0  0  0  0
  -21.7704   -7.6444    3.8448 O   0  0  0  0  0  0  0  0  0  0  0  0
  -19.0110   -7.0120    4.0710 C   0  0  0  0  0  0  0  0  0  0  0  0
  -11.2712   -7.2977    3.7113 C   0  0  0  0  0  0  0  0  0  0  0  0
  -12.0505   -6.8117    3.8145 N   0  0  0  0  0  0  0  0  0  0  0  0
  -14.3748   -5.1987    5.4516 N   0  0  0  0  0  0  0  0  0  0  0  0
  -10.5913   -6.9309    4.6980 N   0  0  0  0  0  0  0  0  0  0  0  0
  -19.3677   -6.7330    5.3741 C   0  0  0  0  0  0  0  0  0  0  0  0
  -17.1173   -5.9588    5.7291 C   0  0  0  0  0  0  0  0  0  0  0  0
  -17.7853   -6.7491    3.5673 C   0  0  0  0  0  0  0  0  0  0  0  0
  -12.3734   -6.8280    5.8219 N   0  0  0  0  0  0  0  0  0  0  0  0
  -20.6704   -7.0366    5.9127 C   0  0  0  0  0  0  0  0  0  0  0  0
  -18.4032   -6.1708    6.2197 C   0  0  0  0  0  0  0  0  0  0  0  0
  -15.4603   -6.3971    3.9296 N   0  0  0  0  0  0  0  0  0  0  0  0
  -22.0468   -8.8911    5.6403 O   0  0  0  0  0  0  0  0  0  0  0  0
  1  6  2  0
  1 16  1  0
  1 19  1  0
  2 13  1  0
  2 14  1  0
  2 18  2  3
  3  9  1  0
  3 11  1  0
  3 15  1  0
  4  5  1  0
  4 10  2  0
  4 18  1  0
  5  9  1  0
  5 15  2  0
  7 12  1  0
  7 14  2  0
  8  9  1  0
  8 11  1  0
 12 16  1  0
 12 17  2  0
 13 17  1  0
M  END
$$$$
