
     RDKit          3D

 17 18  0  0  0  0  0  0  0  0999 V2000
  -12.2164   -6.9620    6.0604 O   0  0  0  0  0  0  0  0  0  0  0  0
  -20.4413   -5.1337    4.0422 C   0  0  0  0  0  0  0  0  0  0  0  0
  -20.1217   -5.9045    2.9216 C   0  0  0  0  0  0  0  0  0  0  0  0
  -11.7707   -6.9016    3.1851 O   0  0  0  0  0  0  0  0  0  0  0  0
  -10.1715   -7.0192    4.7518 N   0  0  0  0  0  0  0  0  0  0  0  0
  -14.8407   -6.3999    5.3521 C   0  0  0  0  0  0  0  0  0  0  0  0
  -18.3125   -5.6754    5.0445 C   0  0  0  0  0  0  0  0  0  0  0  0
  -18.8920   -6.5199    2.8378 C   0  0  0  0  0  0  0  0  0  0  0  0
  -17.9399   -6.3439    3.8281 C   0  0  0  0  0  0  0  0  0  0  0  0
  -17.1473   -5.6786    5.9298 C   0  0  0  0  0  0  0  0  0  0  0  0
  -21.8150   -4.1192    4.0482 Cl  0  0  0  0  0  0  0  0  0  0  0  0
  -16.6582   -6.5891    3.9067 N   0  0  0  0  0  0  0  0  0  0  0  0
  -11.2092   -6.6493    4.1886 C   0  0  0  0  0  0  0  0  0  0  0  0
  -16.2147   -6.2494    5.0697 N   0  0  0  0  0  0  0  0  0  0  0  0
  -12.4154   -6.4463    5.2698 C   0  0  0  0  0  0  0  0  0  0  0  0
  -19.5665   -5.1340    5.1583 C   0  0  0  0  0  0  0  0  0  0  0  0
  -13.7921   -6.5619    4.6022 C   0  0  0  0  0  0  0  0  0  0  0  0
  1 15  1  0
  2  3  1  0
  2 11  1  0
  2 16  2  0
  3  8  2  0
  4 13  2  0
  5 13  1  0
  6 14  1  0
  6 17  2  3
  7  9  2  0
  7 10  1  0
  7 16  1  0
  8  9  1  0
  9 12  1  0
 10 14  1  0
 12 14  1  0
 13 15  1  0
 15 17  1  0
M  END
$$$$
