
     RDKit          3D

 16 17  0  0  0  0  0  0  0  0999 V2000
  -18.7610   -7.2683    3.0658 C   0  0  0  0  0  0  0  0  0  0  0  0
  -11.2190   -6.6971    4.9429 N   0  0  0  0  0  0  0  0  0  0  0  0
  -11.7378   -6.9400    3.5224 C   0  0  0  0  0  0  0  0  0  0  0  0
  -10.6146   -7.0026    4.1386 C   0  0  0  0  0  0  0  0  0  0  0  0
  -20.5601   -8.0618    4.3685 C   0  0  0  0  0  0  0  0  0  0  0  0
  -19.8988   -8.1944    3.0887 O   0  0  0  0  0  0  0  0  0  0  0  0
  -19.7629   -7.1501    5.1251 C   0  0  0  0  0  0  0  0  0  0  0  0
  -15.4187   -6.8248    4.4713 C   0  0  0  0  0  0  0  0  0  0  0  0
  -14.3001   -5.2283    5.4029 N   0  0  0  0  0  0  0  0  0  0  0  0
  -11.8187   -5.8779    5.7116 N   0  0  0  0  0  0  0  0  0  0  0  0
  -15.4651   -4.9671    5.2766 C   0  0  0  0  0  0  0  0  0  0  0  0
  -12.8952   -6.8218    4.3557 N   0  0  0  0  0  0  0  0  0  0  0  0
  -17.7980   -5.7087    4.7288 C   0  0  0  0  0  0  0  0  0  0  0  0
  -18.7174   -6.6789    4.3624 C   0  0  0  0  0  0  0  0  0  0  0  0
  -14.0496   -6.3118    4.6423 C   0  0  0  0  0  0  0  0  0  0  0  0
  -16.3745   -5.8498    4.8353 C   0  0  0  0  0  0  0  0  0  0  0  0
  1  6  1  0
  1 14  1  0
  2  4  1  0
  2 10  1  0
  3  4  1  0
  3 12  1  0
  5  6  1  0
  5  7  1  0
  7 14  1  0
  8 15  1  0
  8 16  1  0
  9 11  1  0
  9 15  2  0
 11 16  2  0
 12 15  1  0
 13 14  1  0
 13 16  1  0
M  END
$$$$
