
     RDKit          3D

 13 13  0  0  0  0  0  0  0  0999 V2000
  -12.7090   -6.5416    5.0851 C   0  0  0  0  0  0  0  0  0  0  0  0
  -17.4303   -6.3816    3.4780 C   0  0  0  0  0  0  0  0  0  0  0  0
  -13.9108   -6.4008    4.4980 C   0  0  0  0  0  0  0  0  0  0  0  0
  -19.6286   -7.2316    3.6818 C   0  0  0  0  0  0  0  0  0  0  0  0
  -17.3530   -6.4078    4.8508 C   0  0  0  0  0  0  0  0  0  0  0  0
  -12.3074   -6.9466    6.0196 O   0  0  0  0  0  0  0  0  0  0  0  0
  -11.4023   -6.6652    4.3309 C   0  0  0  0  0  0  0  0  0  0  0  0
  -15.0338   -5.4633    4.7739 C   0  0  0  0  0  0  0  0  0  0  0  0
  -19.5694   -7.1316    5.0481 C   0  0  0  0  0  0  0  0  0  0  0  0
  -11.4981   -7.3391    3.3966 O   0  0  0  0  0  0  0  0  0  0  0  0
  -16.0622   -6.1621    5.4971 C   0  0  0  0  0  0  0  0  0  0  0  0
  -18.4558   -6.6409    5.6258 C   0  0  0  0  0  0  0  0  0  0  0  0
  -18.5831   -6.8295    2.8812 C   0  0  0  0  0  0  0  0  0  0  0  0
  1  3  1  0
  1  6  2  0
  1  7  1  0
  2  5  1  0
  2 13  2  0
  3  8  1  0
  4  9  2  0
  4 13  1  0
  5 11  1  0
  5 12  2  0
  7 10  1  0
  8 11  1  0
  9 12  1  0
M  END
$$$$
