
     RDKit          3D

 12 12  0  0  0  0  0  0  0  0999 V2000
  -18.1053   -4.9733    4.9739 C   0  0  0  0  0  0  0  0  0  0  0  0
  -18.6717   -7.5321    4.4045 C   0  0  0  0  0  0  0  0  0  0  0  0
  -17.4386   -6.9913    4.2645 C   0  0  0  0  0  0  0  0  0  0  0  0
  -12.3021   -6.6989    4.9573 C   0  0  0  0  0  0  0  0  0  0  0  0
  -19.6415   -6.7496    4.9524 C   0  0  0  0  0  0  0  0  0  0  0  0
  -17.0879   -5.7567    4.5216 C   0  0  0  0  0  0  0  0  0  0  0  0
  -13.5613   -6.5312    4.5681 N   0  0  0  0  0  0  0  0  0  0  0  0
  -12.1543   -6.9532    5.9912 O   0  0  0  0  0  0  0  0  0  0  0  0
  -11.3585   -6.8530    3.9572 N   0  0  0  0  0  0  0  0  0  0  0  0
  -19.3303   -5.3952    5.2480 C   0  0  0  0  0  0  0  0  0  0  0  0
  -14.7361   -6.3496    5.0719 C   0  0  0  0  0  0  0  0  0  0  0  0
  -15.6202   -5.3307    4.4088 C   0  0  0  0  0  0  0  0  0  0  0  0
  1  6  1  0
  1 10  2  0
  2  3  1  0
  2  5  2  0
  3  6  2  0
  4  7  1  0
  4  8  2  0
  4  9  1  0
  5 10  1  0
  6 12  1  0
  7 11  1  0
 11 12  1  0
M  END
$$$$
