
     RDKit          3D

 12 11  0  0  0  0  0  0  0  0999 V2000
  -19.3885   -4.5324    3.9826 C   0  0  0  0  0  0  0  0  0  0  0  0
  -13.9085   -6.5102    4.6568 N   0  0  0  0  0  0  0  0  0  0  0  0
  -18.3994   -5.6285    3.7127 O   0  0  0  0  0  0  0  0  0  0  0  0
  -17.1793   -5.5080    6.3015 O   0  0  0  0  0  0  0  0  0  0  0  0
  -14.9611   -5.9597    5.0904 C   0  0  0  0  0  0  0  0  0  0  0  0
  -20.6641   -5.4123    3.7561 C   0  0  0  0  0  0  0  0  0  0  0  0
  -12.1869   -6.9167    5.9797 O   0  0  0  0  0  0  0  0  0  0  0  0
  -16.1775   -6.0814    4.1246 C   0  0  0  0  0  0  0  0  0  0  0  0
  -17.5234   -5.8238    4.8668 C   0  0  0  0  0  0  0  0  0  0  0  0
  -12.5518   -6.6983    4.9078 C   0  0  0  0  0  0  0  0  0  0  0  0
  -20.1779   -5.3020    5.1103 C   0  0  0  0  0  0  0  0  0  0  0  0
  -11.8868   -6.9417    3.7946 O   0  0  0  0  0  0  0  0  0  0  0  0
  1  3  1  0
  1  6  1  0
  2  5  1  0
  2 10  1  0
  3  9  1  0
  4  9  2  0
  5  8  1  0
  6 11  1  0
  7 10  2  0
  8  9  1  0
 10 12  1  0
M  END
$$$$
