
     RDKit          3D

 27 28  0  0  0  0  0  0  0  0999 V2000
  -17.5233   -5.9639    5.8631 C   0  0  0  0  0  0  0  0  0  0  0  0
  -12.7909   -6.7258    4.3567 N   0  0  0  0  0  0  0  0  0  0  0  0
  -19.5021   -7.7938    2.2580 C   0  0  0  0  0  0  0  0  0  0  0  0
  -22.3769   -8.7041    3.2213 C   0  0  0  0  0  0  0  0  0  0  0  0
  -16.9430   -6.2349    3.5812 C   0  0  0  0  0  0  0  0  0  0  0  0
  -24.9341   -6.6442    0.5903 O   0  0  0  0  0  0  0  0  0  0  0  0
  -13.6630   -6.1809    5.2894 C   0  0  0  0  0  0  0  0  0  0  0  0
  -24.1779   -7.4946    1.2845 C   0  0  0  0  0  0  0  0  0  0  0  0
  -19.7744   -5.1084    5.9714 C   0  0  0  0  0  0  0  0  0  0  0  0
  -22.7662   -7.5004    0.9910 C   0  0  0  0  0  0  0  0  0  0  0  0
  -15.0293   -6.5135    5.1483 C   0  0  0  0  0  0  0  0  0  0  0  0
  -24.7317   -8.4062    2.1876 O   0  0  0  0  0  0  0  0  0  0  0  0
  -23.9009   -8.8038    3.2561 C   0  0  0  0  0  0  0  0  0  0  0  0
  -15.6819   -5.9134    4.0202 C   0  0  0  0  0  0  0  0  0  0  0  0
  -20.0151   -7.3486    5.0484 C   0  0  0  0  0  0  0  0  0  0  0  0
  -21.6781   -9.7766    3.9647 C   0  0  0  0  0  0  0  0  0  0  0  0
  -10.4421   -7.0358    4.3817 O   0  0  0  0  0  0  0  0  0  0  0  0
  -18.6564   -5.8367    6.7092 C   0  0  0  0  0  0  0  0  0  0  0  0
  -24.4374   -6.6746   -0.7419 C   0  0  0  0  0  0  0  0  0  0  0  0
  -20.8148   -6.1620    5.6289 C   0  0  0  0  0  0  0  0  0  0  0  0
  -12.1057   -6.9302    5.8689 N   0  0  0  0  0  0  0  0  0  0  0  0
  -20.1616   -7.3914    3.5838 C   0  0  0  0  0  0  0  0  0  0  0  0
  -19.1544   -6.7243    4.2530 N   0  0  0  0  0  0  0  0  0  0  0  0
  -21.6777   -7.3689    3.2379 C   0  0  0  0  0  0  0  0  0  0  0  0
  -11.5679   -6.8547    4.9614 C   0  0  0  0  0  0  0  0  0  0  0  0
  -17.9108   -6.3379    4.5131 C   0  0  0  0  0  0  0  0  0  0  0  0
  -21.9553   -6.6300    1.9093 C   0  0  0  0  0  0  0  0  0  0  0  0
  1 18  1  0
  1 26  1  0
  2  7  1  0
  2 25  1  0
  3 22  1  0
  4 13  1  0
  4 16  1  0
  4 24  1  0
  5 14  1  0
  5 26  2  3
  6  8  1  0
  6 19  1  0
  7 11  1  0
  8 10  1  0
  8 12  1  0
  9 18  1  0
  9 20  1  0
 10 27  1  0
 11 14  1  0
 12 13  1  0
 15 20  1  0
 15 23  1  0
 17 25  2  0
 21 25  1  0
 22 23  1  0
 22 24  1  0
 23 26  1  0
 24 27  1  0
M  END
$$$$
