
     RDKit          3D

 12 12  0  0  0  0  0  0  0  0999 V2000
  -13.5864   -6.5720    4.5485 N   0  0  0  0  0  0  0  0  0  0  0  0
  -12.1571   -6.9386    6.0095 N   0  0  0  0  0  0  0  0  0  0  0  0
  -18.7447   -5.9074    4.9622 C   0  0  0  0  0  0  0  0  0  0  0  0
  -15.9619   -6.0838    4.8278 C   0  0  0  0  0  0  0  0  0  0  0  0
  -16.7166   -6.0525    3.7202 C   0  0  0  0  0  0  0  0  0  0  0  0
  -18.0047   -6.0760    6.1336 C   0  0  0  0  0  0  0  0  0  0  0  0
  -16.7248   -6.1922    5.9311 C   0  0  0  0  0  0  0  0  0  0  0  0
  -14.5913   -5.9085    4.9032 C   0  0  0  0  0  0  0  0  0  0  0  0
  -18.0934   -5.9204    3.7376 C   0  0  0  0  0  0  0  0  0  0  0  0
  -20.0678   -5.7052    5.0461 F   0  0  0  0  0  0  0  0  0  0  0  0
  -11.2546   -7.0396    3.9521 C   0  0  0  0  0  0  0  0  0  0  0  0
  -12.3052   -6.6935    4.8991 C   0  0  0  0  0  0  0  0  0  0  0  0
  1  8  1  0
  1 12  1  0
  2 12  2  0
  3  6  1  0
  3  9  1  0
  3 10  1  0
  4  5  1  0
  4  7  2  0
  4  8  1  0
  5  9  2  0
  6  7  1  0
 11 12  1  0
M  END
$$$$
