
     RDKit          3D

  9  8  0  0  0  0  0  0  0  0999 V2000
  -14.9616   -6.2902    5.1706 C   0  0  0  0  0  0  0  0  0  0  0  0
  -18.4072   -6.0491    3.7695 C   0  0  0  0  0  0  0  0  0  0  0  0
  -13.7837   -6.3559    4.6542 C   0  0  0  0  0  0  0  0  0  0  0  0
  -17.5894   -6.0901    6.2120 C   0  0  0  0  0  0  0  0  0  0  0  0
  -12.4260   -6.7010    4.9320 C   0  0  0  0  0  0  0  0  0  0  0  0
  -16.0753   -5.7673    4.2979 C   0  0  0  0  0  0  0  0  0  0  0  0
  -17.3737   -6.5406    4.7488 C   0  0  0  0  0  0  0  0  0  0  0  0
  -11.7577   -6.9952    3.8200 O   0  0  0  0  0  0  0  0  0  0  0  0
  -12.1714   -6.9414    6.0099 O   0  0  0  0  0  0  0  0  0  0  0  0
  1  3  2  3
  1  6  1  0
  2  7  1  0
  3  5  1  0
  4  7  1  0
  5  8  2  0
  5  9  1  0
  6  7  1  0
M  END
$$$$
