
     RDKit          3D

 21 21  0  0  0  0  0  0  0  0999 V2000
  -15.0286   -6.4386    5.2491 C   0  0  0  0  0  0  0  0  0  0  0  0
  -19.6927   -3.6140    3.6641 O   0  0  0  0  0  0  0  0  0  0  0  0
  -19.2766   -4.7623    3.9007 C   0  0  0  0  0  0  0  0  0  0  0  0
  -20.0241   -6.0158    3.7969 C   0  0  0  0  0  0  0  0  0  0  0  0
  -16.1215   -6.2009    4.1514 C   0  0  0  0  0  0  0  0  0  0  0  0
  -12.4903   -6.2996    5.4953 C   0  0  0  0  0  0  0  0  0  0  0  0
  -17.9917   -4.8040    4.3156 N   0  0  0  0  0  0  0  0  0  0  0  0
  -10.9230   -7.0780    4.0472 C   0  0  0  0  0  0  0  0  0  0  0  0
  -17.5511   -6.1438    6.1796 O   0  0  0  0  0  0  0  0  0  0  0  0
  -11.4617   -7.3428    3.4092 O   0  0  0  0  0  0  0  0  0  0  0  0
  -13.7290   -6.4903    4.6410 S   0  0  0  0  0  0  0  0  0  0  0  0
  -22.1331   -7.1169    3.3201 C   0  0  0  0  0  0  0  0  0  0  0  0
  -20.3043   -8.3793    4.0475 C   0  0  0  0  0  0  0  0  0  0  0  0
  -12.2196   -6.9808    5.9447 O   0  0  0  0  0  0  0  0  0  0  0  0
  -21.3584   -5.9683    3.3040 C   0  0  0  0  0  0  0  0  0  0  0  0
  -19.5099   -7.2926    4.1160 C   0  0  0  0  0  0  0  0  0  0  0  0
   -9.4405   -7.3567    4.1187 S   0  0  0  0  0  0  0  0  0  0  0  0
  -21.8944   -4.8238    2.7758 O   0  0  0  0  0  0  0  0  0  0  0  0
  -17.4141   -5.8513    4.9139 C   0  0  0  0  0  0  0  0  0  0  0  0
  -21.6026   -8.3350    3.7064 C   0  0  0  0  0  0  0  0  0  0  0  0
  -11.4431   -6.4416    4.9290 O   0  0  0  0  0  0  0  0  0  0  0  0
  1  5  1  0
  1 11  1  0
  2  3  2  0
  3  4  1  0
  3  7  1  0
  4 15  1  0
  4 16  2  0
  5 19  1  0
  6 11  1  0
  6 14  1  0
  6 21  1  0
  7 19  1  0
  8 10  2  0
  8 17  1  0
  8 21  1  0
  9 19  2  0
 12 15  2  0
 12 20  1  0
 13 16  1  0
 13 20  2  0
 15 18  1  0
M  END
$$$$
