
     RDKit          3D

 13 13  0  0  0  0  0  0  0  0999 V2000
  -10.8452   -6.7709    4.2416 C   0  0  0  0  0  0  0  0  0  0  0  0
  -20.0428   -4.8256    3.9737 C   0  0  0  0  0  0  0  0  0  0  0  0
  -14.0317   -6.3861    4.6626 N   0  0  0  0  0  0  0  0  0  0  0  0
  -17.2349   -6.9870    4.5842 C   0  0  0  0  0  0  0  0  0  0  0  0
  -17.5108   -4.8410    4.3278 N   0  0  0  0  0  0  0  0  0  0  0  0
  -15.1435   -5.5521    4.6785 C   0  0  0  0  0  0  0  0  0  0  0  0
  -11.1184   -7.5296    3.7921 N   0  0  0  0  0  0  0  0  0  0  0  0
  -18.5981   -6.8345    4.4461 C   0  0  0  0  0  0  0  0  0  0  0  0
  -11.5746   -6.1823    5.1803 N   0  0  0  0  0  0  0  0  0  0  0  0
  -12.2667   -6.7851    5.8624 O   0  0  0  0  0  0  0  0  0  0  0  0
  -12.8377   -6.3975    5.2930 C   0  0  0  0  0  0  0  0  0  0  0  0
  -18.7715   -5.4363    4.2394 C   0  0  0  0  0  0  0  0  0  0  0  0
  -16.5314   -5.8535    4.5213 C   0  0  0  0  0  0  0  0  0  0  0  0
  1  7  2  0
  1  9  1  0
  2 12  1  0
  3  6  1  0
  3 11  1  0
  4  8  1  0
  4 13  1  0
  5 12  1  0
  5 13  1  0
  6 13  1  0
  8 12  1  0
  9 10  1  0
 10 11  1  0
M  END
$$$$
