
     RDKit          3D

 25 27  0  0  0  0  0  0  0  0999 V2000
   29.3384   34.2708  104.2304 C   0  0  0  0  0  0  0  0  0  0  0  0
   24.2429   33.6908  107.2298 C   0  0  0  0  0  0  0  0  0  0  0  0
   32.1492   33.6482  101.9542 O   0  0  0  0  0  0  0  0  0  0  0  0
   26.1186   35.0972  103.2383 C   0  0  0  0  0  0  0  0  0  0  0  0
   25.0455   34.6986  102.8840 N   0  0  0  0  0  0  0  0  0  0  0  0
   30.5717   35.2259  104.2080 C   0  0  0  0  0  0  0  0  0  0  0  0
   30.4234   36.7038  103.6832 O   0  0  0  0  0  0  0  0  0  0  0  0
   25.0690   35.2716  101.7823 C   0  0  0  0  0  0  0  0  0  0  0  0
   23.7979   32.6988  106.2033 C   0  0  0  0  0  0  0  0  0  0  0  0
   31.6133   34.2649  104.2193 C   0  0  0  0  0  0  0  0  0  0  0  0
   26.2228   34.6774  105.8143 C   0  0  0  0  0  0  0  0  0  0  0  0
   23.4035   32.8757  104.7163 C   0  0  0  0  0  0  0  0  0  0  0  0
   28.1786   35.0725  103.9913 C   0  0  0  0  0  0  0  0  0  0  0  0
   25.6437   34.1609  107.2120 C   0  0  0  0  0  0  0  0  0  0  0  0
   26.9957   35.9534  102.4031 C   0  0  0  0  0  0  0  0  0  0  0  0
   25.0836   36.3333  101.1786 N   0  0  0  0  0  0  0  0  0  0  0  0
   26.8591   34.8132  104.3959 C   0  0  0  0  0  0  0  0  0  0  0  0
   23.2859   34.6339  107.6763 O   0  0  0  0  0  0  0  0  0  0  0  0
   24.3009   31.4403  106.2511 O   0  0  0  0  0  0  0  0  0  0  0  0
   29.7733   33.2698  103.0707 C   0  0  0  0  0  0  0  0  0  0  0  0
   31.2791   33.2281  103.0710 C   0  0  0  0  0  0  0  0  0  0  0  0
   32.4961   33.9880  105.0622 O   0  0  0  0  0  0  0  0  0  0  0  0
   28.1749   36.0203  103.0537 N   0  0  0  0  0  0  0  0  0  0  0  0
   24.1528   36.1877   99.9619 C   0  0  0  0  0  0  0  0  0  0  0  0
   26.2560   36.7373  101.4347 C   0  0  0  0  0  0  0  0  0  0  0  0
  1  6  1  0
  1 13  1  0
  1 20  1  0
  2  9  1  0
  2 14  1  0
  2 18  1  0
  3 21  1  0
  4  5  1  0
  4 15  1  0
  4 17  1  0
  5  8  1  0
  6  7  1  0
  6 10  1  0
  8 16  1  0
  9 12  1  0
  9 19  1  0
 10 21  1  0
 10 22  2  0
 11 14  2  0
 11 17  2  0
 13 17  1  0
 13 23  1  0
 15 23  1  0
 15 25  1  0
 16 24  1  0
 16 25  1  0
 20 21  1  0
M  END
$$$$
