
     RDKit          3D

 31 33  0  0  0  0  0  0  0  0999 V2000
   24.9022   34.5965  103.2393 C   0  0  0  0  0  0  0  0  0  0  0  0
   26.6123   35.0467  105.2194 C   0  0  0  0  0  0  0  0  0  0  0  0
   29.9599   32.9751  102.8756 C   0  0  0  0  0  0  0  0  0  0  0  0
   28.7780   33.4128  103.1699 C   0  0  0  0  0  0  0  0  0  0  0  0
   31.1872   33.7284  103.1912 C   0  0  0  0  0  0  0  0  0  0  0  0
   30.1062   36.9257  103.9496 O   0  0  0  0  0  0  0  0  0  0  0  0
   28.2005   34.5122  103.4702 C   0  0  0  0  0  0  0  0  0  0  0  0
   22.4538   33.4694  105.6997 C   0  0  0  0  0  0  0  0  0  0  0  0
   32.0944   33.6336  101.9466 O   0  0  0  0  0  0  0  0  0  0  0  0
   22.9417   34.1730  107.0716 C   0  0  0  0  0  0  0  0  0  0  0  0
   25.5156   34.4674  105.6914 C   0  0  0  0  0  0  0  0  0  0  0  0
   24.5646   34.0618  104.4951 C   0  0  0  0  0  0  0  0  0  0  0  0
   23.7811   31.9551  103.9634 C   0  0  0  0  0  0  0  0  0  0  0  0
   30.7421   35.0939  103.5661 N   0  0  0  0  0  0  0  0  0  0  0  0
   23.6098   36.2219   98.9755 N   0  0  0  0  0  0  0  0  0  0  0  0
   29.9187   36.0788  103.6731 C   0  0  0  0  0  0  0  0  0  0  0  0
   23.5420   33.2035  104.8179 N   0  0  0  0  0  0  0  0  0  0  0  0
   25.5119   34.0485  107.2213 C   0  0  0  0  0  0  0  0  0  0  0  0
   26.3701   33.2904  107.8020 O   0  0  0  0  0  0  0  0  0  0  0  0
   25.9719   35.2787  102.9061 C   0  0  0  0  0  0  0  0  0  0  0  0
   25.7247   36.7393  100.8873 N   0  0  0  0  0  0  0  0  0  0  0  0
   26.2600   36.3564  101.9951 N   0  0  0  0  0  0  0  0  0  0  0  0
   32.0760   33.3709  104.1137 O   0  0  0  0  0  0  0  0  0  0  0  0
   27.1317   35.0832  103.9015 C   0  0  0  0  0  0  0  0  0  0  0  0
   24.5586   34.1772  109.3032 O   0  0  0  0  0  0  0  0  0  0  0  0
   23.8289   35.8656   99.8386 C   0  0  0  0  0  0  0  0  0  0  0  0
   24.2655   34.0016  107.9529 C   0  0  0  0  0  0  0  0  0  0  0  0
   32.3796   33.9139  105.3219 C   0  0  0  0  0  0  0  0  0  0  0  0
   24.5987   36.2582  100.6021 C   0  0  0  0  0  0  0  0  0  0  0  0
   21.4072   32.2673  105.4986 C   0  0  0  0  0  0  0  0  0  0  0  0
   28.5477   35.6575  103.6270 C   0  0  0  0  0  0  0  0  0  0  0  0
  1 12  2  0
  1 20  1  0
  2 11  1  0
  2 24  1  0
  3  4  1  0
  3  5  1  0
  4  7  1  0
  5  9  1  0
  5 14  1  0
  5 23  1  0
  6 16  2  0
  7 24  1  0
  7 31  2  0
  8 10  1  0
  8 17  1  0
  8 30  1  0
 10 27  1  0
 11 12  1  0
 11 18  1  0
 12 17  1  0
 13 17  1  0
 14 16  1  0
 15 26  2  0
 16 31  1  0
 18 19  2  0
 18 27  1  0
 20 22  1  0
 20 24  1  0
 21 22  2  3
 21 29  1  0
 23 28  1  0
 25 27  1  0
 26 29  1  0
M  END
$$$$
