
     RDKit          3D

 28 29  0  0  0  0  0  0  0  0999 V2000
   31.5699   32.5126  103.2333 O   0  0  0  0  0  0  0  0  0  0  0  0
   28.8003   35.9520  103.4670 C   0  0  0  0  0  0  0  0  0  0  0  0
   23.6622   32.6213  106.2435 C   0  0  0  0  0  0  0  0  0  0  0  0
   25.3277   35.7467  101.6839 C   0  0  0  0  0  0  0  0  0  0  0  0
   24.5439   33.9399  108.1133 C   0  0  0  0  0  0  0  0  0  0  0  0
   27.4206   35.5888  102.9664 C   0  0  0  0  0  0  0  0  0  0  0  0
   29.2532   34.7294  104.1760 N   0  0  0  0  0  0  0  0  0  0  0  0
   31.5035   33.9037  104.8619 C   0  0  0  0  0  0  0  0  0  0  0  0
   24.8380   32.9699  104.1247 C   0  0  0  0  0  0  0  0  0  0  0  0
   27.9528   34.4355  104.7536 C   0  0  0  0  0  0  0  0  0  0  0  0
   24.6280   36.4445  100.6944 C   0  0  0  0  0  0  0  0  0  0  0  0
   24.6780   33.2919  105.6001 O   0  0  0  0  0  0  0  0  0  0  0  0
   26.9123   34.5637  103.7453 C   0  0  0  0  0  0  0  0  0  0  0  0
   31.1452   33.3018  103.3203 C   0  0  0  0  0  0  0  0  0  0  0  0
   23.2704   33.7122  107.3673 C   0  0  0  0  0  0  0  0  0  0  0  0
   25.5381   34.0792  103.4583 C   0  0  0  0  0  0  0  0  0  0  0  0
   32.6651   33.8657  105.1875 O   0  0  0  0  0  0  0  0  0  0  0  0
   29.6603   33.4990  103.2854 C   0  0  0  0  0  0  0  0  0  0  0  0
   30.5344   34.8753  104.8301 C   0  0  0  0  0  0  0  0  0  0  0  0
   23.6391   36.1053   99.7813 O   0  0  0  0  0  0  0  0  0  0  0  0
   24.9598   34.7985  102.5468 C   0  0  0  0  0  0  0  0  0  0  0  0
   32.4437   33.7475  101.6433 O   0  0  0  0  0  0  0  0  0  0  0  0
   31.5782   33.9659  102.4263 C   0  0  0  0  0  0  0  0  0  0  0  0
   29.2880   36.9798  103.4497 O   0  0  0  0  0  0  0  0  0  0  0  0
   31.2769   35.8797  104.3971 O   0  0  0  0  0  0  0  0  0  0  0  0
   25.1157   37.5709  101.0292 O   0  0  0  0  0  0  0  0  0  0  0  0
   25.8096   34.2810  108.1915 O   0  0  0  0  0  0  0  0  0  0  0  0
   26.6354   36.0533  101.8866 C   0  0  0  0  0  0  0  0  0  0  0  0
  1 14  1  0
  2  6  1  0
  2  7  1  0
  2 24  2  0
  3 12  1  0
  3 15  1  0
  4 11  1  0
  4 21  2  0
  4 28  1  0
  5 15  1  0
  5 27  1  0
  6 13  1  0
  6 28  2  0
  7 10  1  0
  7 19  1  0
  8 14  1  0
  8 17  2  0
  8 19  1  0
  9 12  1  0
  9 16  1  0
 10 13  1  0
 11 20  2  0
 11 26  1  0
 13 16  2  0
 14 18  1  0
 14 23  1  0
 16 21  1  0
 19 25  1  0
 22 23  2  0
M  END
$$$$
