
     RDKit          3D

 24 25  0  0  0  0  0  0  0  0999 V2000
   29.0501   33.8639  103.2634 C   0  0  0  0  0  0  0  0  0  0  0  0
   28.9410   32.7614  102.9240 F   0  0  0  0  0  0  0  0  0  0  0  0
   28.3301   36.1394  103.5558 C   0  0  0  0  0  0  0  0  0  0  0  0
   32.2479   33.5347  104.1561 N   0  0  0  0  0  0  0  0  0  0  0  0
   24.7578   36.4697  100.5932 C   0  0  0  0  0  0  0  0  0  0  0  0
   31.5505   33.6130  103.0629 C   0  0  0  0  0  0  0  0  0  0  0  0
   30.4864   35.6299  103.9269 C   0  0  0  0  0  0  0  0  0  0  0  0
   25.0401   35.0547  102.7847 C   0  0  0  0  0  0  0  0  0  0  0  0
   30.3804   34.3410  103.3785 C   0  0  0  0  0  0  0  0  0  0  0  0
   26.8056   34.0021  103.6100 O   0  0  0  0  0  0  0  0  0  0  0  0
   25.4139   35.0152  105.2721 C   0  0  0  0  0  0  0  0  0  0  0  0
   25.2207   35.6751  101.5730 C   0  0  0  0  0  0  0  0  0  0  0  0
   25.5310   34.2844  103.8872 C   0  0  0  0  0  0  0  0  0  0  0  0
   32.0709   34.3803  105.2515 C   0  0  0  0  0  0  0  0  0  0  0  0
   28.0096   34.7791  103.4543 N   0  0  0  0  0  0  0  0  0  0  0  0
   26.3743   33.8570  107.6579 O   0  0  0  0  0  0  0  0  0  0  0  0
   32.0505   33.6081  101.9247 O   0  0  0  0  0  0  0  0  0  0  0  0
   24.4140   36.0063  104.9990 O   0  0  0  0  0  0  0  0  0  0  0  0
   25.1484   37.6999  101.0166 O   0  0  0  0  0  0  0  0  0  0  0  0
   23.6033   36.2907   99.7027 O   0  0  0  0  0  0  0  0  0  0  0  0
   25.4368   34.2439  106.6777 C   0  0  0  0  0  0  0  0  0  0  0  0
   29.6189   36.7624  103.6575 N   0  0  0  0  0  0  0  0  0  0  0  0
   31.5991   35.4921  104.6360 N   0  0  0  0  0  0  0  0  0  0  0  0
   24.2072   34.3696  107.2904 O   0  0  0  0  0  0  0  0  0  0  0  0
  1  2  1  0
  1  9  2  0
  1 15  1  0
  3 15  1  0
  3 22  1  0
  4  6  1  0
  4 14  1  0
  5 12  1  0
  5 19  2  0
  5 20  1  0
  6  9  1  0
  6 17  2  0
  7  9  1  0
  7 22  2  0
  7 23  1  0
  8 12  2  3
  8 13  1  0
 10 13  1  0
 10 15  1  0
 11 13  1  0
 11 18  1  0
 11 21  1  0
 14 23  1  0
 16 21  2  0
 21 24  1  0
M  END
$$$$
