
     RDKit          3D

 28 29  0  0  0  0  0  0  0  0999 V2000
   32.2094   33.4153  103.4229 N   0  0  0  0  0  0  0  0  0  0  0  0
   28.2702   36.1567  103.0200 C   0  0  0  0  0  0  0  0  0  0  0  0
   23.8861   32.8014  106.2826 C   0  0  0  0  0  0  0  0  0  0  0  0
   24.8785   36.4354  100.9195 C   0  0  0  0  0  0  0  0  0  0  0  0
   24.3958   34.0123  108.2860 C   0  0  0  0  0  0  0  0  0  0  0  0
   27.0259   36.4401  102.5366 C   0  0  0  0  0  0  0  0  0  0  0  0
   28.5774   34.7582  103.7374 N   0  0  0  0  0  0  0  0  0  0  0  0
   31.9581   34.7245  104.7658 C   0  0  0  0  0  0  0  0  0  0  0  0
   24.2983   32.8087  103.4561 C   0  0  0  0  0  0  0  0  0  0  0  0
   27.5317   34.2235  103.8936 C   0  0  0  0  0  0  0  0  0  0  0  0
   24.1239   35.9277   99.8255 C   0  0  0  0  0  0  0  0  0  0  0  0
   24.8410   33.6111  105.6502 O   0  0  0  0  0  0  0  0  0  0  0  0
   26.2056   34.0919  103.6191 C   0  0  0  0  0  0  0  0  0  0  0  0
   30.3690   33.1855  103.0514 C   0  0  0  0  0  0  0  0  0  0  0  0
   23.2901   33.8307  107.4401 C   0  0  0  0  0  0  0  0  0  0  0  0
   25.9785   35.2419  102.6721 C   0  0  0  0  0  0  0  0  0  0  0  0
   32.2379   33.8555  105.1777 C   0  0  0  0  0  0  0  0  0  0  0  0
   29.5864   32.2239  102.7371 C   0  0  0  0  0  0  0  0  0  0  0  0
   29.8449   34.1972  104.2263 C   0  0  0  0  0  0  0  0  0  0  0  0
   23.8740   36.1749   99.2889 O   0  0  0  0  0  0  0  0  0  0  0  0
   25.2230   35.7988  102.1971 C   0  0  0  0  0  0  0  0  0  0  0  0
   32.1364   33.9608  101.8390 O   0  0  0  0  0  0  0  0  0  0  0  0
   31.6562   33.6945  102.7803 C   0  0  0  0  0  0  0  0  0  0  0  0
   29.3100   36.7579  103.2886 O   0  0  0  0  0  0  0  0  0  0  0  0
   31.2761   35.3962  104.1871 C   0  0  0  0  0  0  0  0  0  0  0  0
   25.9498   37.2807  101.3322 C   0  0  0  0  0  0  0  0  0  0  0  0
   25.7788   34.3231  108.1271 O   0  0  0  0  0  0  0  0  0  0  0  0
   25.0895   33.4485  104.2392 C   0  0  0  0  0  0  0  0  0  0  0  0
  1 23  1  0
  2  6  1  0
  2  7  1  0
  2 24  2  0
  3 12  1  0
  3 15  1  0
  4 11  1  0
  4 21  1  0
  4 26  1  0
  5 15  1  0
  5 27  1  0
  6 16  1  0
  6 26  1  0
  7 10  1  0
  7 19  1  0
  8 17  2  0
  8 25  1  0
  9 28  2  0
 10 13  2  0
 11 20  2  0
 12 28  1  0
 13 16  1  0
 13 28  1  0
 14 18  2  0
 14 19  1  0
 14 23  1  0
 16 21  1  0
 19 25  1  0
 22 23  2  0
M  END
$$$$
