
     RDKit          3D

 29 31  0  0  0  0  0  0  0  0999 V2000
   31.8967   33.4620  103.8893 C   0  0  0  0  0  0  0  0  0  0  0  0
   25.3476   37.6668  100.9658 N   0  0  0  0  0  0  0  0  0  0  0  0
   25.2175   33.8973  105.1553 C   0  0  0  0  0  0  0  0  0  0  0  0
   28.9319   33.5793  103.4019 C   0  0  0  0  0  0  0  0  0  0  0  0
   21.2836   31.7338  106.8419 O   0  0  0  0  0  0  0  0  0  0  0  0
   31.4701   32.5721  103.0780 N   0  0  0  0  0  0  0  0  0  0  0  0
   29.9709   32.7779  102.7066 C   0  0  0  0  0  0  0  0  0  0  0  0
   23.8557   35.9059   99.8043 C   0  0  0  0  0  0  0  0  0  0  0  0
   23.3652   35.6287   99.7392 O   0  0  0  0  0  0  0  0  0  0  0  0
   32.2759   33.9147  105.2435 C   0  0  0  0  0  0  0  0  0  0  0  0
   29.9215   36.8183  103.8385 O   0  0  0  0  0  0  0  0  0  0  0  0
   25.6738   34.1806  106.6583 C   0  0  0  0  0  0  0  0  0  0  0  0
   24.6906   33.8686  107.6604 C   0  0  0  0  0  0  0  0  0  0  0  0
   22.1574   31.8976  105.8149 N   0  0  0  0  0  0  0  0  0  0  0  0
   26.2385   33.8453  103.8861 C   0  0  0  0  0  0  0  0  0  0  0  0
   29.4512   36.1514  103.6872 C   0  0  0  0  0  0  0  0  0  0  0  0
   24.6721   34.2166  108.8369 O   0  0  0  0  0  0  0  0  0  0  0  0
   24.2085   32.9945  104.8961 C   0  0  0  0  0  0  0  0  0  0  0  0
   30.1460   34.8242  103.4407 C   0  0  0  0  0  0  0  0  0  0  0  0
   27.6189   34.2230  103.8220 C   0  0  0  0  0  0  0  0  0  0  0  0
   22.8923   35.6417   99.3891 F   0  0  0  0  0  0  0  0  0  0  0  0
   31.1264   34.5351  103.5862 N   0  0  0  0  0  0  0  0  0  0  0  0
   25.3732   36.4199  100.9476 C   0  0  0  0  0  0  0  0  0  0  0  0
   25.0263   34.7763  102.7280 C   0  0  0  0  0  0  0  0  0  0  0  0
   23.4057   33.4913  107.1349 C   0  0  0  0  0  0  0  0  0  0  0  0
   27.9296   35.9547  103.9611 C   0  0  0  0  0  0  0  0  0  0  0  0
   24.4625   35.6009  100.5724 C   0  0  0  0  0  0  0  0  0  0  0  0
   23.2592   32.7270  106.0212 C   0  0  0  0  0  0  0  0  0  0  0  0
   25.9481   35.5904  101.9899 O   0  0  0  0  0  0  0  0  0  0  0  0
  1  6  2  0
  1 10  1  0
  1 22  1  0
  2 23  2  0
  3 12  1  0
  3 15  1  0
  3 18  1  0
  4  7  1  0
  4 19  1  0
  4 20  1  0
  5 14  1  0
  6  7  1  0
  8  9  1  0
  8 27  2  3
  9 21  1  0
 11 16  2  0
 12 13  1  0
 13 17  2  0
 13 25  1  0
 14 28  2  3
 15 20  1  0
 15 24  1  0
 16 19  1  0
 16 26  1  0
 18 28  1  0
 19 22  1  0
 20 26  1  0
 23 27  1  0
 23 29  1  0
 24 29  1  0
 25 28  1  0
M  END
$$$$
