
     RDKit          3D

 31 32  0  0  0  0  0  0  0  0999 V2000
   31.4890   33.4638  103.0202 C   0  0  0  0  0  0  0  0  0  0  0  0
   26.8560   35.0157  104.9908 C   0  0  0  0  0  0  0  0  0  0  0  0
   26.0243   33.9951  104.0336 C   0  0  0  0  0  0  0  0  0  0  0  0
   23.4606   36.3702   99.3428 N   0  0  0  0  0  0  0  0  0  0  0  0
   24.8827   36.6420  100.6913 C   0  0  0  0  0  0  0  0  0  0  0  0
   24.0387   32.6170  104.8297 N   0  0  0  0  0  0  0  0  0  0  0  0
   22.9482   33.5606  107.3557 C   0  0  0  0  0  0  0  0  0  0  0  0
   25.3627   37.5208  101.0638 N   0  0  0  0  0  0  0  0  0  0  0  0
   27.4026   35.8658  102.7890 O   0  0  0  0  0  0  0  0  0  0  0  0
   24.1636   33.9919  108.1712 C   0  0  0  0  0  0  0  0  0  0  0  0
   24.9952   33.0197  103.8431 N   0  0  0  0  0  0  0  0  0  0  0  0
   32.1631   33.9422  101.8439 O   0  0  0  0  0  0  0  0  0  0  0  0
   24.8901   35.0863  102.3726 C   0  0  0  0  0  0  0  0  0  0  0  0
   30.1599   32.8453  102.7571 C   0  0  0  0  0  0  0  0  0  0  0  0
   20.7047   32.6954  106.9530 C   0  0  0  0  0  0  0  0  0  0  0  0
   30.1836   36.7892  103.7298 O   0  0  0  0  0  0  0  0  0  0  0  0
   32.6870   34.0696  105.1969 O   0  0  0  0  0  0  0  0  0  0  0  0
   26.1449   35.0256  102.9048 C   0  0  0  0  0  0  0  0  0  0  0  0
   24.8947   35.7147  101.4687 C   0  0  0  0  0  0  0  0  0  0  0  0
   26.0862   33.3994  107.6770 O   0  0  0  0  0  0  0  0  0  0  0  0
   28.1665   34.4555  104.6263 C   0  0  0  0  0  0  0  0  0  0  0  0
   30.1746   35.7308  103.2767 C   0  0  0  0  0  0  0  0  0  0  0  0
   25.4177   33.9984  107.4437 C   0  0  0  0  0  0  0  0  0  0  0  0
   31.2778   34.7756  103.7367 C   0  0  0  0  0  0  0  0  0  0  0  0
   32.0999   34.8499  104.8429 C   0  0  0  0  0  0  0  0  0  0  0  0
   24.5034   34.1157  109.4367 O   0  0  0  0  0  0  0  0  0  0  0  0
   21.6486   33.1753  108.0376 O   0  0  0  0  0  0  0  0  0  0  0  0
   23.0258   32.6978  106.1114 C   0  0  0  0  0  0  0  0  0  0  0  0
   23.9542   35.8709   99.7839 C   0  0  0  0  0  0  0  0  0  0  0  0
   28.5107   35.3633  103.5480 C   0  0  0  0  0  0  0  0  0  0  0  0
   21.5206   32.5589  105.5416 C   0  0  0  0  0  0  0  0  0  0  0  0
  1 12  1  0
  1 14  1  0
  1 24  1  0
  2  3  1  0
  2 21  1  0
  3 11  1  0
  3 18  1  0
  4 29  1  0
  5  8  2  0
  5 19  1  0
  5 29  1  0
  6 11  1  0
  6 28  1  0
  7 10  1  0
  7 27  1  0
  7 28  1  0
  9 18  1  0
  9 30  1  0
 10 23  1  0
 10 26  1  0
 13 18  1  0
 13 19  1  0
 15 27  1  0
 15 31  1  0
 16 22  1  0
 17 25  2  0
 20 23  2  0
 21 30  1  0
 22 24  1  0
 22 30  1  0
 24 25  1  0
 28 31  1  0
M  END
$$$$
