
     RDKit          3D

 32 34  0  0  0  0  0  0  0  0999 V2000
   29.7423   34.0365  104.8355 C   0  0  0  0  0  0  0  0  0  0  0  0
   23.6446   35.9649   99.7089 O   0  0  0  0  0  0  0  0  0  0  0  0
   23.7570   35.9993   99.8876 C   0  0  0  0  0  0  0  0  0  0  0  0
   30.1183   36.3065  103.7774 O   0  0  0  0  0  0  0  0  0  0  0  0
   32.2914   33.4730  103.4853 O   0  0  0  0  0  0  0  0  0  0  0  0
   26.4586   34.0868  106.4868 N   0  0  0  0  0  0  0  0  0  0  0  0
   22.7858   32.4352  106.2882 C   0  0  0  0  0  0  0  0  0  0  0  0
   22.5839   31.0931  103.7673 C   0  0  0  0  0  0  0  0  0  0  0  0
   23.8224   32.6154  105.2236 C   0  0  0  0  0  0  0  0  0  0  0  0
   25.5389   33.9749  106.9641 C   0  0  0  0  0  0  0  0  0  0  0  0
   25.4469   37.3583  101.1064 C   0  0  0  0  0  0  0  0  0  0  0  0
   24.7528   34.0566  102.9451 N   0  0  0  0  0  0  0  0  0  0  0  0
   32.2074   33.8415  101.8815 O   0  0  0  0  0  0  0  0  0  0  0  0
   25.4573   34.1017  108.5341 O   0  0  0  0  0  0  0  0  0  0  0  0
   28.6970   36.2973  104.1515 O   0  0  0  0  0  0  0  0  0  0  0  0
   25.0491   35.2629  102.4773 C   0  0  0  0  0  0  0  0  0  0  0  0
   28.5773   34.5395  104.6943 C   0  0  0  0  0  0  0  0  0  0  0  0
   24.9413   36.0765  101.2372 C   0  0  0  0  0  0  0  0  0  0  0  0
   31.1995   34.2588  105.7376 C   0  0  0  0  0  0  0  0  0  0  0  0
   30.8539   34.9902  103.2182 C   0  0  0  0  0  0  0  0  0  0  0  0
   32.3219   33.8081  105.2160 C   0  0  0  0  0  0  0  0  0  0  0  0
   21.6526   30.8998  104.8940 C   0  0  0  0  0  0  0  0  0  0  0  0
   24.5431   36.2128  100.3558 N   0  0  0  0  0  0  0  0  0  0  0  0
   21.8294   31.5504  106.1655 C   0  0  0  0  0  0  0  0  0  0  0  0
   25.1160   33.8684  104.3069 C   0  0  0  0  0  0  0  0  0  0  0  0
   27.2191   34.4825  105.1562 C   0  0  0  0  0  0  0  0  0  0  0  0
   31.5770   33.6668  102.7895 C   0  0  0  0  0  0  0  0  0  0  0  0
   24.7650   33.5071  105.6925 N   0  0  0  0  0  0  0  0  0  0  0  0
   30.3220   32.8367  102.8751 F   0  0  0  0  0  0  0  0  0  0  0  0
   26.4603   35.3870  103.1044 N   0  0  0  0  0  0  0  0  0  0  0  0
   23.6805   31.9408  103.9510 C   0  0  0  0  0  0  0  0  0  0  0  0
   26.3594   34.6624  104.2764 C   0  0  0  0  0  0  0  0  0  0  0  0
  1 17  1  0
  1 19  1  0
  2  3  2  0
  3 23  2  0
  4 15  1  0
  4 20  1  0
  5 21  1  0
  5 27  1  0
  6 10  1  0
  6 26  2  0
  7  9  1  0
  7 24  2  0
  8 22  2  0
  8 31  1  0
  9 28  1  0
  9 31  2  0
 10 14  2  0
 10 28  1  0
 11 18  1  0
 12 16  2  0
 12 25  1  0
 13 27  1  0
 16 18  1  0
 16 30  1  0
 17 26  1  0
 18 23  1  0
 19 21  1  0
 20 27  1  0
 22 24  1  0
 25 28  1  0
 25 32  1  0
 26 32  1  0
 27 29  1  0
 30 32  1  0
M  END
$$$$
