
     RDKit          3D

 18 17  0  0  0  0  0  0  0  0999 V2000
   25.4505   36.8043  100.7814 C   0  0  0  0  0  0  0  0  0  0  0  0
   25.1602   35.0318  102.9279 C   0  0  0  0  0  0  0  0  0  0  0  0
   26.2844   35.7948  105.3838 O   0  0  0  0  0  0  0  0  0  0  0  0
   26.0031   36.1164  102.2444 O   0  0  0  0  0  0  0  0  0  0  0  0
   29.9623   32.9333  102.8148 C   0  0  0  0  0  0  0  0  0  0  0  0
   32.1505   33.8116  104.7918 C   0  0  0  0  0  0  0  0  0  0  0  0
   23.5700   36.1673   99.6345 O   0  0  0  0  0  0  0  0  0  0  0  0
   32.3422   33.2672  103.3245 N   0  0  0  0  0  0  0  0  0  0  0  0
   30.2770   36.3983  102.9216 O   0  0  0  0  0  0  0  0  0  0  0  0
   30.6478   35.3269  103.4228 C   0  0  0  0  0  0  0  0  0  0  0  0
   24.3260   36.0805  100.2615 C   0  0  0  0  0  0  0  0  0  0  0  0
   31.0529   33.3129  102.8179 C   0  0  0  0  0  0  0  0  0  0  0  0
   28.0310   34.2349  104.2266 C   0  0  0  0  0  0  0  0  0  0  0  0
   24.7521   34.0817  106.0212 C   0  0  0  0  0  0  0  0  0  0  0  0
   31.6872   35.0519  104.6221 N   0  0  0  0  0  0  0  0  0  0  0  0
   29.4272   34.0170  103.7893 C   0  0  0  0  0  0  0  0  0  0  0  0
   24.8494   35.2436  104.6194 C   0  0  0  0  0  0  0  0  0  0  0  0
   27.3883   36.0482  104.4522 C   0  0  0  0  0  0  0  0  0  0  0  0
  1  4  1  0
  1 11  1  0
  2  4  1  0
  2 17  1  0
  3 17  1  0
  3 18  1  0
  5 12  1  0
  5 16  1  0
  6  8  1  0
  6 15  1  0
  7 11  2  0
  8 12  1  0
  9 10  2  0
 10 15  1  0
 13 16  1  0
 13 18  1  0
 14 17  1  0
M  END
$$$$
