
     RDKit          3D

 35 32  0  0  0  0  0  0  0  0999 V2000
   25.0415   35.7942  101.4264 C   0  0  0  0  0  0  0  0  0  0  0  0
   26.9500   36.3873  100.1475 F   0  0  0  0  0  0  0  0  0  0  0  0
   23.8527   33.7595  107.0053 C   0  0  0  0  0  0  0  0  0  0  0  0
   22.6515   33.0154  106.7351 C   0  0  0  0  0  0  0  0  0  0  0  0
   25.1694   34.7620  103.4758 C   0  0  0  0  0  0  0  0  0  0  0  0
   28.4129   34.1490  105.2153 C   0  0  0  0  0  0  0  0  0  0  0  0
   26.7265   34.4346   98.3452 C   0  0  0  0  0  0  0  0  0  0  0  0
   30.0660   36.8810  103.5380 O   0  0  0  0  0  0  0  0  0  0  0  0
   24.7474   34.1172  105.9604 C   0  0  0  0  0  0  0  0  0  0  0  0
   24.0177   34.1143  108.4250 C   0  0  0  0  0  0  0  0  0  0  0  0
   21.7968   33.8245  109.5753 C   0  0  0  0  0  0  0  0  0  0  0  0
   26.0059   34.5082  106.3086 C   0  0  0  0  0  0  0  0  0  0  0  0
   23.8427   36.0071   99.8240 C   0  0  0  0  0  0  0  0  0  0  0  0
   26.9554   34.7234  105.0352 C   0  0  0  0  0  0  0  0  0  0  0  0
   21.5189   32.7297  107.4151 C   0  0  0  0  0  0  0  0  0  0  0  0
   30.8888   34.5707  103.0070 N   0  0  0  0  0  0  0  0  0  0  0  0
   31.6356   33.4641  103.5260 C   0  0  0  0  0  0  0  0  0  0  0  0
   29.9436   35.0233   97.4878 S   0  0  0  0  0  0  0  0  0  0  0  0
   32.8137   33.9251  105.2828 O   0  0  0  0  0  0  0  0  0  0  0  0
   26.7365   34.6554   98.0068 O   0  0  0  0  0  0  0  0  0  0  0  0
   30.8952   34.3260  105.6852 C   0  0  0  0  0  0  0  0  0  0  0  0
   30.1683   35.6615  103.6742 C   0  0  0  0  0  0  0  0  0  0  0  0
   24.2913   34.3684  104.5615 C   0  0  0  0  0  0  0  0  0  0  0  0
   25.3609   36.9151  100.7241 C   0  0  0  0  0  0  0  0  0  0  0  0
   28.1480   33.3571   96.3184 C   0  0  0  0  0  0  0  0  0  0  0  0
   26.7291   34.6774   97.9695 O   0  0  0  0  0  0  0  0  0  0  0  0
   29.6543   34.5677  104.9004 C   0  0  0  0  0  0  0  0  0  0  0  0
   26.4774   34.9606  103.8258 C   0  0  0  0  0  0  0  0  0  0  0  0
   31.5349   32.7075  103.2259 O   0  0  0  0  0  0  0  0  0  0  0  0
   32.0704   33.7866  105.0970 C   0  0  0  0  0  0  0  0  0  0  0  0
   23.0948   34.2449  109.3568 C   0  0  0  0  0  0  0  0  0  0  0  0
   20.9375   32.9790  108.6794 C   0  0  0  0  0  0  0  0  0  0  0  0
   23.5106   36.7031   98.8211 N   0  0  0  0  0  0  0  0  0  0  0  0
   24.8986   34.7633  102.1085 N   0  0  0  0  0  0  0  0  0  0  0  0
   23.8396   36.0117   99.8208 C   0  0  0  0  0  0  0  0  0  0  0  0
  1 24  1  0
  1 34  1  0
  3  4  1  0
  3  9  1  0
  3 10  1  0
  4 15  2  0
  5 23  1  0
  5 28  2  0
  5 34  1  0
  6 14  1  0
  6 27  1  0
  7 20  1  0
  8 22  2  0
  9 12  1  0
  9 23  2  0
 10 31  1  0
 11 31  2  0
 11 32  1  0
 12 14  1  0
 13 35  3  0
 14 28  1  0
 15 32  1  0
 16 17  1  0
 16 22  1  0
 17 29  2  0
 17 30  1  0
 19 30  2  0
 20 26  1  0
 21 27  1  0
 21 30  1  0
 22 27  1  0
 33 35  1  0
M  END
$$$$
