
     RDKit          3D

 25 23  0  0  0  0  0  0  0  0999 V2000
   25.8666   35.2671  102.8134 C   0  0  0  0  0  0  0  0  0  0  0  0
   29.0056   34.2403  105.0022 C   0  0  0  0  0  0  0  0  0  0  0  0
   26.1516   35.6416   99.7786 O   0  0  0  0  0  0  0  0  0  0  0  0
   25.8509   34.4145  108.0114 O   0  0  0  0  0  0  0  0  0  0  0  0
   30.2194   35.3300  104.2762 C   0  0  0  0  0  0  0  0  0  0  0  0
   25.5485   36.2006  101.9204 C   0  0  0  0  0  0  0  0  0  0  0  0
   31.3500   33.3784  102.9416 C   0  0  0  0  0  0  0  0  0  0  0  0
   26.9073   34.5091   98.0340 C   0  0  0  0  0  0  0  0  0  0  0  0
   26.7020   34.5350  105.7199 C   0  0  0  0  0  0  0  0  0  0  0  0
   27.1197   34.4703   97.9304 O   0  0  0  0  0  0  0  0  0  0  0  0
   24.8412   36.5247  101.5532 C   0  0  0  0  0  0  0  0  0  0  0  0
   32.0726   33.8729  101.7747 O   0  0  0  0  0  0  0  0  0  0  0  0
   27.7134   34.4414  104.6891 C   0  0  0  0  0  0  0  0  0  0  0  0
   31.5766   34.3685  104.0872 C   0  0  0  0  0  0  0  0  0  0  0  0
   30.0782   32.8084  102.7600 C   0  0  0  0  0  0  0  0  0  0  0  0
   25.4498   33.7399  105.0573 C   0  0  0  0  0  0  0  0  0  0  0  0
   27.2239   35.9741  103.3751 C   0  0  0  0  0  0  0  0  0  0  0  0
   23.0434   35.5847   99.7137 O   0  0  0  0  0  0  0  0  0  0  0  0
   30.1560   36.8348  103.4343 O   0  0  0  0  0  0  0  0  0  0  0  0
   23.9931   35.9345   99.8903 C   0  0  0  0  0  0  0  0  0  0  0  0
   25.1923   33.5686  107.4475 C   0  0  0  0  0  0  0  0  0  0  0  0
   25.0419   35.0667  100.2635 C   0  0  0  0  0  0  0  0  0  0  0  0
   32.2002   33.8874  105.2530 C   0  0  0  0  0  0  0  0  0  0  0  0
   24.8022   34.9012  103.7870 N   0  0  0  0  0  0  0  0  0  0  0  0
   24.5436   33.4840  106.1285 C   0  0  0  0  0  0  0  0  0  0  0  0
  1  6  1  0
  1 17  1  0
  1 24  1  0
  2  5  1  0
  2 13  1  0
  3 22  1  0
  4 21  2  0
  5 14  1  0
  5 19  1  0
  6 11  1  0
  7 12  1  0
  7 14  1  0
  7 15  1  0
  8 10  2  0
  9 13  1  0
  9 16  1  0
 11 22  1  0
 14 23  1  0
 16 24  1  0
 16 25  1  0
 18 20  2  0
 20 22  1  0
 21 25  1  0
M  END
$$$$
