
     RDKit          3D

 18 19  0  0  0  0  0  0  0  0999 V2000
   27.9798   34.6948  103.3119 C   0  0  0  0  0  0  0  0  0  0  0  0
   25.9014   34.0817  107.3645 C   0  0  0  0  0  0  0  0  0  0  0  0
   25.3581   34.1288  106.0961 O   0  0  0  0  0  0  0  0  0  0  0  0
   32.1355   33.8935  101.8587 O   0  0  0  0  0  0  0  0  0  0  0  0
   30.5125   35.3436  103.2156 C   0  0  0  0  0  0  0  0  0  0  0  0
   23.8795   35.9906   99.8076 C   0  0  0  0  0  0  0  0  0  0  0  0
   25.9922   34.5499  104.8560 C   0  0  0  0  0  0  0  0  0  0  0  0
   29.9960   32.9941  102.8471 C   0  0  0  0  0  0  0  0  0  0  0  0
   25.0544   34.8955  103.7276 C   0  0  0  0  0  0  0  0  0  0  0  0
   29.3983   34.5029  103.3250 N   0  0  0  0  0  0  0  0  0  0  0  0
   24.7491   36.2288  101.9179 O   0  0  0  0  0  0  0  0  0  0  0  0
   31.5112   33.1838  103.2392 C   0  0  0  0  0  0  0  0  0  0  0  0
   25.4971   35.2146  102.4550 C   0  0  0  0  0  0  0  0  0  0  0  0
   24.9885   36.7893  100.6510 C   0  0  0  0  0  0  0  0  0  0  0  0
   26.9059   35.3961  102.4190 C   0  0  0  0  0  0  0  0  0  0  0  0
   30.1551   36.7476  103.4379 O   0  0  0  0  0  0  0  0  0  0  0  0
   27.4184   34.6348  104.5927 N   0  0  0  0  0  0  0  0  0  0  0  0
   31.7222   34.5262  104.1703 C   0  0  0  0  0  0  0  0  0  0  0  0
  1 10  1  0
  1 15  1  0
  1 17  2  0
  2  3  1  0
  3  7  1  0
  4 12  1  0
  5 10  1  0
  5 16  1  0
  5 18  1  0
  6 14  1  0
  7  9  2  0
  7 17  1  0
  8 10  1  0
  8 12  1  0
  9 13  1  0
 11 13  1  0
 11 14  1  0
 12 18  1  0
 13 15  1  0
M  END
$$$$
