
     RDKit          3D

 21 21  0  0  0  0  0  0  0  0999 V2000
   30.2538   34.1993  103.5603 C   0  0  0  0  0  0  0  0  0  0  0  0
   31.9097   34.4564  104.9949 N   0  0  0  0  0  0  0  0  0  0  0  0
   25.3314   35.0576  102.7624 C   0  0  0  0  0  0  0  0  0  0  0  0
   32.1165   33.8487  101.9222 O   0  0  0  0  0  0  0  0  0  0  0  0
   26.2994   35.8177  101.7700 N   0  0  0  0  0  0  0  0  0  0  0  0
   24.3650   33.2393  105.3853 C   0  0  0  0  0  0  0  0  0  0  0  0
   24.5370   32.5538  103.8536 C   0  0  0  0  0  0  0  0  0  0  0  0
   25.3755   34.3855  105.7989 C   0  0  0  0  0  0  0  0  0  0  0  0
   27.2058   36.4084  102.5569 C   0  0  0  0  0  0  0  0  0  0  0  0
   25.8764   34.9261  104.2985 C   0  0  0  0  0  0  0  0  0  0  0  0
   25.3348   34.2239  108.4011 O   0  0  0  0  0  0  0  0  0  0  0  0
   31.3771   34.1386  104.7827 C   0  0  0  0  0  0  0  0  0  0  0  0
   30.1600   36.8335  103.5645 O   0  0  0  0  0  0  0  0  0  0  0  0
   24.4100   36.0148  100.2539 C   0  0  0  0  0  0  0  0  0  0  0  0
   30.8370   33.1371  102.7604 C   0  0  0  0  0  0  0  0  0  0  0  0
   28.2090   35.8302  103.3016 C   0  0  0  0  0  0  0  0  0  0  0  0
   23.6643   36.1987   99.5529 N   0  0  0  0  0  0  0  0  0  0  0  0
   29.7099   35.8221  103.5321 C   0  0  0  0  0  0  0  0  0  0  0  0
   25.4863   36.7806  100.7817 C   0  0  0  0  0  0  0  0  0  0  0  0
   27.6023   34.6110  104.4037 S   0  0  0  0  0  0  0  0  0  0  0  0
   25.9213   34.1114  107.2988 C   0  0  0  0  0  0  0  0  0  0  0  0
  1 12  1  0
  1 15  1  0
  1 18  1  0
  2 12  2  0
  3  5  1  0
  3 10  1  0
  4 15  1  0
  5  9  1  0
  5 19  1  0
  6  7  1  0
  6  8  1  0
  8 10  1  0
  8 21  1  0
  9 16  1  0
 10 20  1  0
 11 21  2  0
 13 18  2  0
 14 17  2  0
 14 19  1  0
 16 18  1  0
 16 20  1  0
M  END
$$$$
