
     RDKit          3D

 35 34  0  0  0  0  0  0  0  0999 V2000
   30.3653   35.6270  103.9107 C   0  0  0  0  0  0  0  0  0  0  0  0
   20.4179   32.7119  109.4634 O   0  0  0  0  0  0  0  0  0  0  0  0
   25.9366   34.3901  105.6792 N   0  0  0  0  0  0  0  0  0  0  0  0
   20.4384   33.9405  107.3282 C   0  0  0  0  0  0  0  0  0  0  0  0
   31.6882   33.8829  102.3910 C   0  0  0  0  0  0  0  0  0  0  0  0
   24.1650   33.4936  107.1164 C   0  0  0  0  0  0  0  0  0  0  0  0
   23.0993   36.3212   99.5291 N   0  0  0  0  0  0  0  0  0  0  0  0
   31.6199   34.2769  105.5294 O   0  0  0  0  0  0  0  0  0  0  0  0
   32.1891   33.6468  104.0145 C   0  0  0  0  0  0  0  0  0  0  0  0
   28.9318   34.9977  104.5972 C   0  0  0  0  0  0  0  0  0  0  0  0
   21.2032   31.7495  106.8771 C   0  0  0  0  0  0  0  0  0  0  0  0
   22.3560   34.1748  108.9996 C   0  0  0  0  0  0  0  0  0  0  0  0
   31.3036   33.0740  103.2606 C   0  0  0  0  0  0  0  0  0  0  0  0
   25.6125   35.0797  103.1038 C   0  0  0  0  0  0  0  0  0  0  0  0
   26.9326   35.6388  102.9590 C   0  0  0  0  0  0  0  0  0  0  0  0
   25.3368   35.3376  102.0649 C   0  0  0  0  0  0  0  0  0  0  0  0
   31.6215   35.1355  104.5386 C   0  0  0  0  0  0  0  0  0  0  0  0
   28.5834   34.0538  105.4339 O   0  0  0  0  0  0  0  0  0  0  0  0
   27.7960   36.1623  104.2235 C   0  0  0  0  0  0  0  0  0  0  0  0
   23.9234   35.9203   99.7940 C   0  0  0  0  0  0  0  0  0  0  0  0
   21.2712   33.3440  108.7069 C   0  0  0  0  0  0  0  0  0  0  0  0
   24.3142   35.9621  104.8102 O   0  0  0  0  0  0  0  0  0  0  0  0
   25.8350   36.6209  100.9156 C   0  0  0  0  0  0  0  0  0  0  0  0
   30.1389   36.8615  103.6572 O   0  0  0  0  0  0  0  0  0  0  0  0
   25.7406   34.0643  107.0613 C   0  0  0  0  0  0  0  0  0  0  0  0
   25.0809   36.2824  100.8952 C   0  0  0  0  0  0  0  0  0  0  0  0
   19.9629   32.7023  106.7682 C   0  0  0  0  0  0  0  0  0  0  0  0
   30.0587   32.7985  102.7292 C   0  0  0  0  0  0  0  0  0  0  0  0
   23.5639   36.2255   99.5192 C   0  0  0  0  0  0  0  0  0  0  0  0
   24.3682   34.1318  109.1601 O   0  0  0  0  0  0  0  0  0  0  0  0
   25.0995   35.1096  104.5668 C   0  0  0  0  0  0  0  0  0  0  0  0
   22.4794   32.7651  106.5573 C   0  0  0  0  0  0  0  0  0  0  0  0
   32.3469   33.8349  105.2467 C   0  0  0  0  0  0  0  0  0  0  0  0
   32.1920   33.7375  101.9081 N   0  0  0  0  0  0  0  0  0  0  0  0
   23.7690   34.1256  108.4445 C   0  0  0  0  0  0  0  0  0  0  0  0
  1 10  1  0
  1 17  1  0
  1 24  1  0
  2 21  1  0
  3 25  1  0
  3 31  1  0
  4 21  1  0
  4 27  1  0
  5 13  1  0
  5 34  2  0
  6 25  1  0
  6 35  1  0
  7 29  2  0
  8 17  1  0
  8 33  1  0
  9 13  1  0
  9 33  1  0
 10 18  1  0
 10 19  1  0
 11 27  1  0
 11 32  1  0
 12 21  1  0
 12 35  1  0
 13 28  1  0
 14 15  1  0
 14 16  2  0
 14 31  1  0
 15 19  1  0
 16 26  2  0
 20 26  1  0
 20 29  1  0
 22 31  2  0
 23 26  1  0
 30 35  2  0
M  END
$$$$
