
     RDKit          3D

 33 35  0  0  0  0  0  0  0  0999 V2000
   25.7032   34.1505  104.2708 C   0  0  0  0  0  0  0  0  0  0  0  0
   27.0587   34.3992  104.1611 C   0  0  0  0  0  0  0  0  0  0  0  0
   24.8359   36.3804  101.7941 O   0  0  0  0  0  0  0  0  0  0  0  0
   22.3237   31.7146  105.5793 C   0  0  0  0  0  0  0  0  0  0  0  0
   31.3180   33.1674  103.1936 C   0  0  0  0  0  0  0  0  0  0  0  0
   25.0273   36.9380  100.6305 C   0  0  0  0  0  0  0  0  0  0  0  0
   25.1761   35.2930  102.2978 C   0  0  0  0  0  0  0  0  0  0  0  0
   31.9601   33.5879  104.2233 C   0  0  0  0  0  0  0  0  0  0  0  0
   27.4849   35.2104  103.0404 C   0  0  0  0  0  0  0  0  0  0  0  0
   29.2030   33.6856  103.2767 C   0  0  0  0  0  0  0  0  0  0  0  0
   23.9077   36.0431   99.9227 C   0  0  0  0  0  0  0  0  0  0  0  0
   32.0733   33.9543  101.7897 C   0  0  0  0  0  0  0  0  0  0  0  0
   29.6507   36.3055  103.6756 C   0  0  0  0  0  0  0  0  0  0  0  0
   26.5031   35.6452  102.0274 C   0  0  0  0  0  0  0  0  0  0  0  0
   29.7846   34.7561  104.4639 C   0  0  0  0  0  0  0  0  0  0  0  0
   22.1740   33.2916  107.4852 C   0  0  0  0  0  0  0  0  0  0  0  0
   30.1629   36.7310  103.9190 O   0  0  0  0  0  0  0  0  0  0  0  0
   31.7374   35.0848  104.4529 C   0  0  0  0  0  0  0  0  0  0  0  0
   25.7942   34.3298  108.0557 O   0  0  0  0  0  0  0  0  0  0  0  0
   30.0683   32.8499  102.7149 C   0  0  0  0  0  0  0  0  0  0  0  0
   24.1817   33.1499  106.1083 C   0  0  0  0  0  0  0  0  0  0  0  0
   24.4475   34.0172  108.2662 C   0  0  0  0  0  0  0  0  0  0  0  0
   28.3759   36.3546  102.6984 O   0  0  0  0  0  0  0  0  0  0  0  0
   25.1996   33.8848  105.6799 N   0  0  0  0  0  0  0  0  0  0  0  0
   24.3389   31.6174  104.0857 C   0  0  0  0  0  0  0  0  0  0  0  0
   24.6783   35.9785   98.8331 O   0  0  0  0  0  0  0  0  0  0  0  0
   24.3942   34.1154  109.5955 O   0  0  0  0  0  0  0  0  0  0  0  0
   23.6158   32.1548  105.2133 C   0  0  0  0  0  0  0  0  0  0  0  0
   32.6213   33.9708  105.2972 O   0  0  0  0  0  0  0  0  0  0  0  0
   23.6186   33.6064  107.3043 C   0  0  0  0  0  0  0  0  0  0  0  0
   26.3830   36.3923  100.7796 C   0  0  0  0  0  0  0  0  0  0  0  0
   21.6238   32.2579  106.6675 C   0  0  0  0  0  0  0  0  0  0  0  0
   25.0000   34.3999  103.2578 C   0  0  0  0  0  0  0  0  0  0  0  0
  1  2  1  0
  1 24  1  0
  1 33  1  0
  2  9  1  0
  3  6  1  0
  3  7  1  0
  4 28  1  0
  4 32  2  0
  5  8  1  0
  5 12  1  0
  5 20  1  0
  6 11  1  0
  6 31  1  0
  7 14  1  0
  7 33  1  0
  8 18  1  0
  8 29  1  0
  9 14  1  0
  9 23  1  0
 10 15  1  0
 10 20  1  0
 11 26  1  0
 13 15  1  0
 13 17  2  0
 13 23  1  0
 14 31  1  0
 16 30  1  0
 16 32  1  0
 19 22  2  0
 21 24  1  0
 21 28  1  0
 21 30  1  0
 22 27  1  0
 22 30  1  0
 25 28  1  0
M  END
$$$$
