
     RDKit          3D

 28 29  0  0  0  0  0  0  0  0999 V2000
   29.8447   32.4507  102.8150 C   0  0  0  0  0  0  0  0  0  0  0  0
   24.7342   35.7170  101.3544 N   0  0  0  0  0  0  0  0  0  0  0  0
   27.5357   35.4827  103.8291 C   0  0  0  0  0  0  0  0  0  0  0  0
   29.0184   35.6750  103.9699 C   0  0  0  0  0  0  0  0  0  0  0  0
   24.5617   33.2098  104.7779 O   0  0  0  0  0  0  0  0  0  0  0  0
   32.7771   33.9176  105.2160 O   0  0  0  0  0  0  0  0  0  0  0  0
   27.1125   35.7817  102.5167 C   0  0  0  0  0  0  0  0  0  0  0  0
   23.5731   36.1275   99.6222 O   0  0  0  0  0  0  0  0  0  0  0  0
   25.0689   34.6896  102.8681 C   0  0  0  0  0  0  0  0  0  0  0  0
   22.5611   31.1172  106.1469 O   0  0  0  0  0  0  0  0  0  0  0  0
   29.7658   34.2026  104.1990 C   0  0  0  0  0  0  0  0  0  0  0  0
   25.3307   34.1210  103.9789 C   0  0  0  0  0  0  0  0  0  0  0  0
   30.4849   33.2063  103.1385 N   0  0  0  0  0  0  0  0  0  0  0  0
   25.6677   35.4795  102.1685 C   0  0  0  0  0  0  0  0  0  0  0  0
   25.2239   37.4835  101.1825 N   0  0  0  0  0  0  0  0  0  0  0  0
   22.7546   32.3641  106.2913 C   0  0  0  0  0  0  0  0  0  0  0  0
   32.1434   33.6474  104.8337 C   0  0  0  0  0  0  0  0  0  0  0  0
   24.7046   36.3437  100.4856 C   0  0  0  0  0  0  0  0  0  0  0  0
   21.8606   33.2310  106.5152 O   0  0  0  0  0  0  0  0  0  0  0  0
   29.7781   36.9082  103.4502 O   0  0  0  0  0  0  0  0  0  0  0  0
   24.1108   32.2351  103.8044 C   0  0  0  0  0  0  0  0  0  0  0  0
   24.1911   32.8278  106.1541 C   0  0  0  0  0  0  0  0  0  0  0  0
   26.1326   34.5250  106.3079 C   0  0  0  0  0  0  0  0  0  0  0  0
   30.8931   34.3385  105.3134 C   0  0  0  0  0  0  0  0  0  0  0  0
   32.1689   33.8686  101.8966 O   0  0  0  0  0  0  0  0  0  0  0  0
   25.0078   33.6403  107.2806 C   0  0  0  0  0  0  0  0  0  0  0  0
   26.4784   34.7418  104.6957 C   0  0  0  0  0  0  0  0  0  0  0  0
   32.2227   33.1607  103.1241 C   0  0  0  0  0  0  0  0  0  0  0  0
  1 13  1  0
  2 14  1  0
  2 18  1  0
  3  4  1  0
  3  7  2  0
  3 27  1  0
  4 11  1  0
  4 20  1  0
  5 12  1  0
  5 21  1  0
  6 17  2  0
  7 14  1  0
  8 18  1  0
  9 12  1  0
  9 14  2  0
 10 16  2  0
 11 13  1  0
 11 24  1  0
 12 27  1  0
 13 28  1  0
 15 18  1  0
 16 19  1  0
 16 22  1  0
 17 24  1  0
 17 28  1  0
 22 26  1  0
 23 26  1  0
 23 27  2  3
 25 28  1  0
M  END
$$$$
