
     RDKit          3D

 28 30  0  0  0  0  0  0  0  0999 V2000
    5.4321   -0.8036    2.6402 C   0  0  0  0  0  0  0  0  0  0  0  0
    6.8503    2.4947    2.8302 C   0  0  0  0  0  0  0  0  0  0  0  0
    8.0726    1.8073    3.4156 C   0  0  0  0  0  0  0  0  0  0  0  0
    8.9066   -0.7851    1.1935 O   0  0  0  0  0  0  0  0  0  0  0  0
    8.7299    2.1352    1.0338 O   0  0  0  0  0  0  0  0  0  0  0  0
    5.3131   -2.1054    3.0892 C   0  0  0  0  0  0  0  0  0  0  0  0
    3.1041   -3.9094    3.4096 Cl  0  0  0  0  0  0  0  0  0  0  0  0
    4.2573   -0.5482    1.6959 C   0  0  0  0  0  0  0  0  0  0  0  0
    3.6502    0.4923    0.9001 C   0  0  0  0  0  0  0  0  0  0  0  0
    1.3665    1.4305   -0.2140 C   0  0  0  0  0  0  0  0  0  0  0  0
    8.8335   -1.8753    2.2624 C   0  0  0  0  0  0  0  0  0  0  0  0
    8.2097    0.6960    2.9615 C   0  0  0  0  0  0  0  0  0  0  0  0
    0.0349    1.0664   -0.3256 O   0  0  0  0  0  0  0  0  0  0  0  0
    8.8420    3.0069    3.8050 O   0  0  0  0  0  0  0  0  0  0  0  0
    1.7534   -0.8947    0.4757 C   0  0  0  0  0  0  0  0  0  0  0  0
    2.7343    3.5740   -0.1383 N   0  0  0  0  0  0  0  0  0  0  0  0
    4.0246   -2.6492    2.6778 N   0  0  0  0  0  0  0  0  0  0  0  0
    2.2591   -1.8618    1.2738 C   0  0  0  0  0  0  0  0  0  0  0  0
    7.8558   -1.9293    3.7140 C   0  0  0  0  0  0  0  0  0  0  0  0
    3.4759   -1.6943    1.8489 C   0  0  0  0  0  0  0  0  0  0  0  0
    1.6286    2.8300   -0.2060 C   0  0  0  0  0  0  0  0  0  0  0  0
    6.2239    0.1616    3.4054 C   0  0  0  0  0  0  0  0  0  0  0  0
    0.4998    3.6792   -0.4503 N   0  0  0  0  0  0  0  0  0  0  0  0
    6.1987    3.3602    3.6565 O   0  0  0  0  0  0  0  0  0  0  0  0
    7.7694   -0.3411    3.6474 N   0  0  0  0  0  0  0  0  0  0  0  0
    8.7808    1.0749    1.7946 C   0  0  0  0  0  0  0  0  0  0  0  0
    2.3187    0.3822    0.3839 C   0  0  0  0  0  0  0  0  0  0  0  0
    5.6222    1.4347    2.3886 C   0  0  0  0  0  0  0  0  0  0  0  0
  1  6  1  0
  1  8  1  0
  1 22  1  0
  2  3  1  0
  2 24  1  0
  2 28  1  0
  3 12  1  0
  3 14  1  0
  4 11  1  0
  5 26  1  0
  6 17  1  0
  7 17  1  0
  8  9  2  0
  8 20  1  0
  9 27  1  0
 10 13  1  0
 10 21  1  0
 10 27  2  3
 11 19  1  0
 12 25  1  0
 12 26  1  0
 15 18  1  0
 15 27  1  0
 16 21  2  0
 17 20  1  0
 18 20  2  0
 19 25  1  0
 21 23  1  0
 22 25  1  0
 22 28  1  0
M  END
$$$$
