
     RDKit          3D

 65 66  0  0  0  0  0  0  0  0999 V2000
    4.5315   -1.8891    4.8783 C   0  0  0  0  0  0  0  0  0  0  0  0
    1.3016    0.4851   -1.0689 C   0  0  0  0  0  0  0  0  0  0  0  0
    7.5509    1.9356    5.2811 C   0  0  0  0  0  0  0  0  0  0  0  0
    4.7293    4.5708    1.2416 O   0  0  0  0  0  0  0  0  0  0  0  0
    0.3862    1.5862   -0.9716 C   0  0  0  0  0  0  0  0  0  0  0  0
    4.7746   -3.2728    5.5257 C   0  0  0  0  0  0  0  0  0  0  0  0
    3.7103   -5.2088    6.3598 O   0  0  0  0  0  0  0  0  0  0  0  0
    5.9332   -2.5100    8.1794 C   0  0  0  0  0  0  0  0  0  0  0  0
    8.7296   -1.6713    2.3575 N   0  0  0  0  0  0  0  0  0  0  0  0
    2.6087    0.7090   -0.5249 C   0  0  0  0  0  0  0  0  0  0  0  0
    8.3573   -2.8195    7.0767 C   0  0  0  0  0  0  0  0  0  0  0  0
    3.9717   -4.4080    5.1271 C   0  0  0  0  0  0  0  0  0  0  0  0
    5.8217    2.8687    3.7742 O   0  0  0  0  0  0  0  0  0  0  0  0
    8.9368    0.8834    2.5948 C   0  0  0  0  0  0  0  0  0  0  0  0
    6.7301   -0.1576    7.4274 C   0  0  0  0  0  0  0  0  0  0  0  0
    3.1942    2.8235    1.4950 C   0  0  0  0  0  0  0  0  0  0  0  0
   -1.0784    1.3579   -0.8274 O   0  0  0  0  0  0  0  0  0  0  0  0
    1.3248   -1.2653    1.0532 O   0  0  0  0  0  0  0  0  0  0  0  0
    9.4959   -2.5155    0.1540 C   0  0  0  0  0  0  0  0  0  0  0  0
    9.1669   -0.5240    3.2365 C   0  0  0  0  0  0  0  0  0  0  0  0
    3.2060    0.5481    0.7768 C   0  0  0  0  0  0  0  0  0  0  0  0
    2.8749    4.0872   -0.5566 O   0  0  0  0  0  0  0  0  0  0  0  0
    0.5283   -2.7354    3.2115 O   0  0  0  0  0  0  0  0  0  0  0  0
    3.3519   -2.4142    2.0759 C   0  0  0  0  0  0  0  0  0  0  0  0
    3.9313    1.5741    1.5109 C   0  0  0  0  0  0  0  0  0  0  0  0
    8.0525   -2.8320    4.9763 N   0  0  0  0  0  0  0  0  0  0  0  0
    6.8540    1.0156    6.2702 C   0  0  0  0  0  0  0  0  0  0  0  0
    6.7358   -4.7492    5.3315 C   0  0  0  0  0  0  0  0  0  0  0  0
    6.2271    0.4795    8.8919 C   0  0  0  0  0  0  0  0  0  0  0  0
    9.6379    1.7362    3.6103 C   0  0  0  0  0  0  0  0  0  0  0  0
    5.2323    4.0396    3.2934 C   0  0  0  0  0  0  0  0  0  0  0  0
    6.1660   -3.5016    6.0847 C   0  0  0  0  0  0  0  0  0  0  0  0
    7.9072   -4.0135    4.4876 C   0  0  0  0  0  0  0  0  0  0  0  0
    0.9928    2.6764   -0.1135 C   0  0  0  0  0  0  0  0  0  0  0  0
    2.7656   -3.2493    3.0242 C   0  0  0  0  0  0  0  0  0  0  0  0
    7.4221   -5.5666    6.0027 O   0  0  0  0  0  0  0  0  0  0  0  0
    9.4431   -2.6258    1.8305 C   0  0  0  0  0  0  0  0  0  0  0  0
    7.2512   -2.6017    5.9148 C   0  0  0  0  0  0  0  0  0  0  0  0
    1.3908   -3.5740    2.6315 C   0  0  0  0  0  0  0  0  0  0  0  0
    9.0669    1.7399    1.2832 O   0  0  0  0  0  0  0  0  0  0  0  0
    4.3461   -3.8244    8.0754 C   0  0  0  0  0  0  0  0  0  0  0  0
    0.1237    3.6994    0.1616 O   0  0  0  0  0  0  0  0  0  0  0  0
   10.0244   -4.0216    2.2867 C   0  0  0  0  0  0  0  0  0  0  0  0
    9.0252   -2.1759    7.5228 O   0  0  0  0  0  0  0  0  0  0  0  0
    9.4037    0.0011    7.1763 C   0  0  0  0  0  0  0  0  0  0  0  0
    2.5891   -1.7876    0.9589 C   0  0  0  0  0  0  0  0  0  0  0  0
    6.5622   -3.3658   10.0651 C   0  0  0  0  0  0  0  0  0  0  0  0
    5.8650   -1.3546    7.4042 C   0  0  0  0  0  0  0  0  0  0  0  0
   -1.7608    2.5073   -1.4761 O   0  0  0  0  0  0  0  0  0  0  0  0
    9.4435   -0.6731   -1.6083 C   0  0  0  0  0  0  0  0  0  0  0  0
    9.0131   -1.2939   -0.3971 C   0  0  0  0  0  0  0  0  0  0  0  0
    5.7035   -3.7025    7.5985 C   0  0  0  0  0  0  0  0  0  0  0  0
    2.4532    2.9891    0.1641 C   0  0  0  0  0  0  0  0  0  0  0  0
    5.5519    5.2785    3.7166 O   0  0  0  0  0  0  0  0  0  0  0  0
    4.8690    0.9509    8.7534 C   0  0  0  0  0  0  0  0  0  0  0  0
    7.6470    1.2696    2.5831 O   0  0  0  0  0  0  0  0  0  0  0  0
    4.1824    3.8674    2.1833 C   0  0  0  0  0  0  0  0  0  0  0  0
    3.7177   -0.7811    0.2638 C   0  0  0  0  0  0  0  0  0  0  0  0
    4.9821   -0.7637    0.0906 O   0  0  0  0  0  0  0  0  0  0  0  0
    3.5025   -4.3100    3.6627 C   0  0  0  0  0  0  0  0  0  0  0  0
    7.4452   -4.3769    3.1046 O   0  0  0  0  0  0  0  0  0  0  0  0
    9.9675    0.6453    5.8345 C   0  0  0  0  0  0  0  0  0  0  0  0
    9.0640    1.7780    5.1220 C   0  0  0  0  0  0  0  0  0  0  0  0
    6.8380    3.1938    4.8053 C   0  0  0  0  0  0  0  0  0  0  0  0
    8.9261    1.2025    7.9580 O   0  0  0  0  0  0  0  0  0  0  0  0
  1  6  1  0
  2  5  1  0
  2 10  1  0
  3 27  1  0
  3 63  1  0
  3 64  1  0
  4 57  1  0
  5 17  1  0
  5 34  1  0
  6 12  1  0
  6 32  1  0
  7 12  1  0
  8 48  1  0
  8 52  1  0
  9 20  1  0
  9 37  1  0
 10 21  1  0
 11 38  1  0
 11 44  2  0
 12 60  1  0
 13 31  1  0
 13 64  1  0
 14 20  1  0
 14 30  1  0
 14 40  1  0
 14 56  1  0
 15 27  1  0
 15 29  1  0
 15 48  1  0
 16 25  1  0
 16 53  1  0
 16 57  1  0
 17 49  1  0
 18 46  1  0
 19 37  2  3
 19 51  1  0
 21 25  1  0
 21 58  1  0
 22 53  1  0
 23 39  1  0
 24 35  1  0
 24 46  1  0
 26 33  1  0
 26 38  1  0
 28 32  1  0
 28 33  1  0
 28 36  1  0
 29 55  1  0
 30 63  1  0
 31 54  2  0
 31 57  1  0
 32 38  1  0
 32 52  1  0
 33 61  1  0
 34 42  1  0
 34 53  1  0
 35 39  1  0
 35 60  1  0
 37 43  1  0
 41 52  1  0
 45 62  1  0
 45 65  1  0
 46 58  1  0
 50 51  1  0
 58 59  2  0
 62 63  1  0
M  END
$$$$
