
     RDKit          3D

 25 26  0  0  0  0  0  0  0  0999 V2000
    3.0401    4.1604    0.4967 O   0  0  0  0  0  0  0  0  0  0  0  0
    5.6734   -0.9205    2.0580 N   0  0  0  0  0  0  0  0  0  0  0  0
    3.1704    1.8353    0.3154 C   0  0  0  0  0  0  0  0  0  0  0  0
    5.7266    3.5630    4.1667 O   0  0  0  0  0  0  0  0  0  0  0  0
    6.5227   -1.9120    1.8569 C   0  0  0  0  0  0  0  0  0  0  0  0
    2.6181    2.8979    0.2405 C   0  0  0  0  0  0  0  0  0  0  0  0
    6.8547   -2.8795    2.9564 C   0  0  0  0  0  0  0  0  0  0  0  0
    4.0719   -0.5010    0.0214 C   0  0  0  0  0  0  0  0  0  0  0  0
    5.5087    0.4479    2.7428 C   0  0  0  0  0  0  0  0  0  0  0  0
    8.5271   -3.1841    1.4975 N   0  0  0  0  0  0  0  0  0  0  0  0
    0.3855    1.9234   -0.4680 C   0  0  0  0  0  0  0  0  0  0  0  0
    9.7592   -3.6045    1.0279 C   0  0  0  0  0  0  0  0  0  0  0  0
    6.7085    1.1684    2.3055 C   0  0  0  0  0  0  0  0  0  0  0  0
    7.6038   -2.0456    0.9768 N   0  0  0  0  0  0  0  0  0  0  0  0
    4.4025   -1.3240    1.2908 C   0  0  0  0  0  0  0  0  0  0  0  0
    2.8855    0.4967    0.2509 C   0  0  0  0  0  0  0  0  0  0  0  0
    6.3358    2.8008    1.7875 C   0  0  0  0  0  0  0  0  0  0  0  0
   -1.0152    3.0750   -1.5348 O   0  0  0  0  0  0  0  0  0  0  0  0
    5.5346    3.4939    2.9957 C   0  0  0  0  0  0  0  0  0  0  0  0
   -0.8384    2.5395   -0.5331 C   0  0  0  0  0  0  0  0  0  0  0  0
    4.7192    4.4549    2.6976 O   0  0  0  0  0  0  0  0  0  0  0  0
    1.4390    2.9464   -0.6972 N   0  0  0  0  0  0  0  0  0  0  0  0
    7.9615   -3.6012    2.6288 C   0  0  0  0  0  0  0  0  0  0  0  0
    0.6077    0.5074   -0.2239 N   0  0  0  0  0  0  0  0  0  0  0  0
    1.6022   -0.2686    0.1327 C   0  0  0  0  0  0  0  0  0  0  0  0
  1  6  2  0
  2  5  1  0
  2  9  1  0
  2 15  1  0
  3  6  1  0
  3 16  2  0
  4 19  2  0
  5  7  1  0
  5 14  2  0
  6 22  1  0
  7 23  1  0
  8 15  1  0
  8 16  1  0
  9 13  1  0
 10 12  1  0
 10 14  1  0
 10 23  1  0
 11 20  1  0
 11 22  2  0
 11 24  1  0
 13 17  1  0
 16 25  1  0
 17 19  1  0
 18 20  1  0
 19 21  1  0
 24 25  1  0
M  END
$$$$
