
     RDKit          3D

 24 24  0  0  0  0  0  0  0  0999 V2000
    6.2042   -0.9096    1.6809 O   0  0  0  0  0  0  0  0  0  0  0  0
    7.1703   -1.9718    1.9778 C   0  0  0  0  0  0  0  0  0  0  0  0
    5.5213    4.1286    3.3295 O   0  0  0  0  0  0  0  0  0  0  0  0
    9.5596   -1.7742    1.5077 C   0  0  0  0  0  0  0  0  0  0  0  0
   -0.9679    2.0864   -0.6686 O   0  0  0  0  0  0  0  0  0  0  0  0
    8.5215   -1.2884    2.6165 C   0  0  0  0  0  0  0  0  0  0  0  0
    6.9162    0.6359    3.4184 C   0  0  0  0  0  0  0  0  0  0  0  0
    1.1859    0.3471    0.0378 C   0  0  0  0  0  0  0  0  0  0  0  0
    8.1090    0.2821    2.7083 C   0  0  0  0  0  0  0  0  0  0  0  0
    5.6314   -0.0721    2.5757 C   0  0  0  0  0  0  0  0  0  0  0  0
    4.0357    1.8726    1.3729 C   0  0  0  0  0  0  0  0  0  0  0  0
    2.5575    0.0647   -0.0441 C   0  0  0  0  0  0  0  0  0  0  0  0
    3.7990   -0.2861    0.9732 C   0  0  0  0  0  0  0  0  0  0  0  0
    8.5303   -1.2102    4.0312 O   0  0  0  0  0  0  0  0  0  0  0  0
    6.6512    3.1466    3.1787 P   0  0  0  0  0  0  0  0  0  0  0  0
    4.6573   -0.4300    3.4656 O   0  0  0  0  0  0  0  0  0  0  0  0
    9.1162   -2.8081    0.2343 C   0  0  0  0  0  0  0  0  0  0  0  0
    0.5307    1.5482   -0.4490 C   0  0  0  0  0  0  0  0  0  0  0  0
    0.6016    3.9607   -0.2818 N   0  0  0  0  0  0  0  0  0  0  0  0
    1.4390    2.7568   -0.1455 C   0  0  0  0  0  0  0  0  0  0  0  0
    2.8169    2.4894    0.5274 N   0  0  0  0  0  0  0  0  0  0  0  0
    7.5806    3.1641    4.1722 O   0  0  0  0  0  0  0  0  0  0  0  0
    7.6273    2.8138    2.0090 O   0  0  0  0  0  0  0  0  0  0  0  0
    4.6849    0.7729    1.5344 C   0  0  0  0  0  0  0  0  0  0  0  0
  1  2  1  0
  1 10  1  0
  2  6  1  0
  3 15  1  0
  4  6  1  0
  4 17  1  0
  5 18  1  0
  6  9  1  0
  6 14  1  0
  7  9  1  0
  7 10  1  0
  8 12  1  0
  8 18  1  0
 10 16  1  0
 10 24  1  0
 11 21  1  0
 11 24  1  0
 12 13  1  0
 13 24  1  0
 15 22  1  0
 15 23  1  0
 18 20  1  0
 19 20  2  0
 20 21  1  0
M  END
$$$$
