
     RDKit          3D

  6  5  0  0  0  0  0  0  0  0999 V2000
   21.3672   20.9611   20.7926 O   0  0  0  0  0  0  0  0  0  0  0  0
   20.6475   22.4863   19.1316 C   0  0  0  0  0  0  0  0  0  0  0  0
   20.1662   22.8540   21.2953 O   0  0  0  0  0  0  0  0  0  0  0  0
   21.8129   22.8873   16.8738 C   0  0  0  0  0  0  0  0  0  0  0  0
   21.3462   21.7715   17.9992 C   0  0  0  0  0  0  0  0  0  0  0  0
   20.6270   21.9259   20.4626 C   0  0  0  0  0  0  0  0  0  0  0  0
  1  6  2  0
  2  5  1  0
  2  6  1  0
  3  6  1  0
  4  5  1  0
M  END
$$$$
