
     RDKit          3D

 13 12  0  0  0  0  0  0  0  0999 V2000
   21.3051   22.2594   19.4643 O   0  0  0  0  0  0  0  0  0  0  0  0
   23.3787   19.3270   20.1850 O   0  0  0  0  0  0  0  0  0  0  0  0
   23.1431   22.1776   17.4825 C   0  0  0  0  0  0  0  0  0  0  0  0
   20.0114   22.6303   20.3871 C   0  0  0  0  0  0  0  0  0  0  0  0
   23.3598   20.7330   19.8741 C   0  0  0  0  0  0  0  0  0  0  0  0
   19.8299   23.6556   21.2687 C   0  0  0  0  0  0  0  0  0  0  0  0
   24.4990   21.8753   16.6266 C   0  0  0  0  0  0  0  0  0  0  0  0
   18.5757   24.5861   21.1757 O   0  0  0  0  0  0  0  0  0  0  0  0
   24.0186   19.5554   21.6316 C   0  0  0  0  0  0  0  0  0  0  0  0
   20.3609   23.8456   22.6635 C   0  0  0  0  0  0  0  0  0  0  0  0
   22.4605   21.2314   18.5804 C   0  0  0  0  0  0  0  0  0  0  0  0
   22.5056   23.4379   16.7109 C   0  0  0  0  0  0  0  0  0  0  0  0
   23.2582   24.7821   16.9752 C   0  0  0  0  0  0  0  0  0  0  0  0
  1  4  1  0
  1 11  1  0
  2  5  1  0
  2  9  1  0
  3  7  1  0
  3 11  1  0
  3 12  1  0
  4  6  1  0
  5 11  1  0
  6  8  1  0
  6 10  1  0
 12 13  1  0
M  END
$$$$
