
     RDKit          3D

 16 15  0  0  0  0  0  0  0  0999 V2000
   21.0250   18.7924   20.8136 C   0  0  0  0  0  0  0  0  0  0  0  0
   25.2310   24.5898   17.2290 C   0  0  0  0  0  0  0  0  0  0  0  0
   22.5297   25.1254   20.4088 C   0  0  0  0  0  0  0  0  0  0  0  0
   18.3862   23.4841   20.3162 O   0  0  0  0  0  0  0  0  0  0  0  0
   23.9363   22.4370   16.9100 C   0  0  0  0  0  0  0  0  0  0  0  0
   21.2269   23.7071   22.5982 C   0  0  0  0  0  0  0  0  0  0  0  0
   19.5441   22.7428   20.1013 C   0  0  0  0  0  0  0  0  0  0  0  0
   21.8155   23.0826   18.7297 O   0  0  0  0  0  0  0  0  0  0  0  0
   20.5882   23.3286   21.1681 C   0  0  0  0  0  0  0  0  0  0  0  0
   23.9191   23.9928   16.9585 C   0  0  0  0  0  0  0  0  0  0  0  0
   19.9124   21.3925   19.4607 C   0  0  0  0  0  0  0  0  0  0  0  0
   22.2349   18.5338   19.9841 O   0  0  0  0  0  0  0  0  0  0  0  0
   22.6599   22.0028   17.9197 C   0  0  0  0  0  0  0  0  0  0  0  0
   20.5878   23.7770   23.6790 O   0  0  0  0  0  0  0  0  0  0  0  0
   21.8295   23.7686   20.0795 C   0  0  0  0  0  0  0  0  0  0  0  0
   20.4945   20.1432   20.1095 C   0  0  0  0  0  0  0  0  0  0  0  0
  1 12  1  0
  1 16  1  0
  2 10  1  0
  3 15  1  0
  4  7  1  0
  5 10  1  0
  5 13  1  0
  6  9  1  0
  6 14  2  0
  7  9  1  0
  7 11  1  0
  8 13  1  0
  8 15  1  0
  9 15  1  0
 11 16  1  0
M  END
$$$$
