
     RDKit          3D

 31 32  0  0  0  0  0  0  0  0999 V2000
   23.2014   23.1881   17.9466 C   0  0  0  0  0  0  0  0  0  0  0  0
   21.0535   21.8314   20.5854 C   0  0  0  0  0  0  0  0  0  0  0  0
   20.8723   23.6874   22.5636 O   0  0  0  0  0  0  0  0  0  0  0  0
   22.2548   19.8731   19.4772 C   0  0  0  0  0  0  0  0  0  0  0  0
   21.9555   17.7602   20.7874 C   0  0  0  0  0  0  0  0  0  0  0  0
   26.7107   19.4353   21.1843 C   0  0  0  0  0  0  0  0  0  0  0  0
   22.5473   23.7859   16.8380 C   0  0  0  0  0  0  0  0  0  0  0  0
   26.7194   21.8862   21.7100 N   0  0  0  0  0  0  0  0  0  0  0  0
   23.7037   25.8299   17.4438 C   0  0  0  0  0  0  0  0  0  0  0  0
   24.5492   24.3337   22.1031 N   0  0  0  0  0  0  0  0  0  0  0  0
   19.2526   22.3934   19.8575 O   0  0  0  0  0  0  0  0  0  0  0  0
   23.0617   18.8500   20.2409 C   0  0  0  0  0  0  0  0  0  0  0  0
   23.3597   24.1901   23.0227 C   0  0  0  0  0  0  0  0  0  0  0  0
   20.8209   20.5520   19.8109 C   0  0  0  0  0  0  0  0  0  0  0  0
   24.8768   23.5422   20.4515 C   0  0  0  0  0  0  0  0  0  0  0  0
   24.8661   20.9258   20.6024 C   0  0  0  0  0  0  0  0  0  0  0  0
   18.6052   24.4773   21.0388 O   0  0  0  0  0  0  0  0  0  0  0  0
   21.9482   24.7571   22.7035 C   0  0  0  0  0  0  0  0  0  0  0  0
   23.1383   22.6259   23.1462 O   0  0  0  0  0  0  0  0  0  0  0  0
   25.7231   25.7701   18.9276 O   0  0  0  0  0  0  0  0  0  0  0  0
   19.9836   23.7251   21.3510 C   0  0  0  0  0  0  0  0  0  0  0  0
   27.3128   20.6214   21.7081 C   0  0  0  0  0  0  0  0  0  0  0  0
   19.8911   22.6946   20.5088 C   0  0  0  0  0  0  0  0  0  0  0  0
   25.4911   22.1135   20.9203 C   0  0  0  0  0  0  0  0  0  0  0  0
   24.5146   25.1841   18.3472 C   0  0  0  0  0  0  0  0  0  0  0  0
   24.5506   18.6367   19.7620 C   0  0  0  0  0  0  0  0  0  0  0  0
   25.3956   19.6477   20.6412 C   0  0  0  0  0  0  0  0  0  0  0  0
   21.5212   25.0883   21.3771 O   0  0  0  0  0  0  0  0  0  0  0  0
   20.2738   19.7020   20.2702 O   0  0  0  0  0  0  0  0  0  0  0  0
   22.7192   25.1176   16.7468 C   0  0  0  0  0  0  0  0  0  0  0  0
   24.1441   23.9056   18.9409 C   0  0  0  0  0  0  0  0  0  0  0  0
  1  7  1  0
  1 31  2  0
  2 14  1  0
  2 23  1  0
  3 18  1  0
  3 21  1  0
  4 12  1  0
  4 14  1  0
  5 12  1  0
  6 22  1  0
  6 27  1  0
  7 30  1  0
  8 22  2  0
  8 24  1  0
  9 25  1  0
  9 30  2  0
 10 13  1  0
 11 23  2  0
 12 26  1  0
 13 18  1  0
 13 19  1  0
 14 29  1  0
 15 24  1  0
 15 31  1  0
 16 24  1  0
 16 27  2  0
 17 21  2  0
 18 28  1  0
 20 25  1  0
 21 23  1  0
 25 31  1  0
 26 27  1  0
M  END
$$$$
