
     RDKit          3D

 24 26  0  0  0  0  0  0  0  0999 V2000
   22.1684   18.9589   20.4954 C   0  0  0  0  0  0  0  0  0  0  0  0
   21.5175   23.9936   21.3401 N   0  0  0  0  0  0  0  0  0  0  0  0
   20.2386   18.0909   20.9510 O   0  0  0  0  0  0  0  0  0  0  0  0
   20.2664   23.4299   21.3815 C   0  0  0  0  0  0  0  0  0  0  0  0
   22.7265   17.9483   20.7193 O   0  0  0  0  0  0  0  0  0  0  0  0
   21.5602   22.1816   18.0733 C   0  0  0  0  0  0  0  0  0  0  0  0
   22.9760   25.7665   20.2366 C   0  0  0  0  0  0  0  0  0  0  0  0
   23.1969   24.2914   16.7911 O   0  0  0  0  0  0  0  0  0  0  0  0
   22.7058   20.0154   19.4348 C   0  0  0  0  0  0  0  0  0  0  0  0
   22.2837   25.2685   21.5954 C   0  0  0  0  0  0  0  0  0  0  0  0
   19.5259   23.6457   21.9580 O   0  0  0  0  0  0  0  0  0  0  0  0
   20.6763   19.1663   20.4754 C   0  0  0  0  0  0  0  0  0  0  0  0
   22.6222   23.0164   16.9178 C   0  0  0  0  0  0  0  0  0  0  0  0
   24.3456   24.0108   22.6666 O   0  0  0  0  0  0  0  0  0  0  0  0
   23.3057   24.7015   22.8330 C   0  0  0  0  0  0  0  0  0  0  0  0
   24.0332   27.3749   18.6185 C   0  0  0  0  0  0  0  0  0  0  0  0
   20.2807   20.7129   19.8508 C   0  0  0  0  0  0  0  0  0  0  0  0
   23.8890   26.4320   17.6311 C   0  0  0  0  0  0  0  0  0  0  0  0
   23.3737   25.2606   17.7345 C   0  0  0  0  0  0  0  0  0  0  0  0
   23.5924   27.0937   20.0286 C   0  0  0  0  0  0  0  0  0  0  0  0
   20.0947   22.2441   20.2801 C   0  0  0  0  0  0  0  0  0  0  0  0
   19.1483   22.6767   19.9436 O   0  0  0  0  0  0  0  0  0  0  0  0
   21.4221   20.7984   18.7178 C   0  0  0  0  0  0  0  0  0  0  0  0
   23.0683   24.8882   19.1713 C   0  0  0  0  0  0  0  0  0  0  0  0
  1  5  2  0
  1  9  1  0
  1 12  1  0
  2  4  1  0
  2 10  1  0
  3 12  2  0
  4 11  2  0
  4 21  1  0
  6 13  1  0
  6 23  1  0
  7 10  1  0
  7 20  1  0
  7 24  1  0
  8 13  1  0
  8 19  1  0
  9 23  1  0
 10 15  1  0
 12 17  1  0
 14 15  2  0
 16 18  1  0
 16 20  1  0
 17 21  1  0
 17 23  1  0
 18 19  2  0
 19 24  1  0
 21 22  2  0
M  END
$$$$
