
     RDKit          3D

 19 19  0  0  0  0  0  0  0  0999 V2000
   22.2641   23.2037   18.4354 C   0  0  0  0  0  0  0  0  0  0  0  0
   23.6891   25.1769   17.8279 C   0  0  0  0  0  0  0  0  0  0  0  0
   19.9422   23.4351   21.5592 C   0  0  0  0  0  0  0  0  0  0  0  0
   21.9152   24.8323   21.1729 C   0  0  0  0  0  0  0  0  0  0  0  0
   19.7280   23.4697   22.7061 O   0  0  0  0  0  0  0  0  0  0  0  0
   21.3354   23.5921   21.4374 C   0  0  0  0  0  0  0  0  0  0  0  0
   18.7649   23.6962   20.8229 O   0  0  0  0  0  0  0  0  0  0  0  0
   22.8348   21.9702   23.0568 C   0  0  0  0  0  0  0  0  0  0  0  0
   20.7975   22.2342   18.8904 Cl  0  0  0  0  0  0  0  0  0  0  0  0
   22.0015   22.4654   21.9571 N   0  0  0  0  0  0  0  0  0  0  0  0
   23.9897   19.7097   20.7684 C   0  0  0  0  0  0  0  0  0  0  0  0
   23.9770   22.9317   16.8801 C   0  0  0  0  0  0  0  0  0  0  0  0
   23.7945   19.9212   22.1682 O   0  0  0  0  0  0  0  0  0  0  0  0
   22.9322   22.4950   17.4049 C   0  0  0  0  0  0  0  0  0  0  0  0
   23.0988   20.5638   22.8886 C   0  0  0  0  0  0  0  0  0  0  0  0
   22.7783   25.2193   20.1344 N   0  0  0  0  0  0  0  0  0  0  0  0
   22.8988   24.4740   18.8991 C   0  0  0  0  0  0  0  0  0  0  0  0
   23.8495   26.7764   17.8165 Cl  0  0  0  0  0  0  0  0  0  0  0  0
   24.3418   24.2981   17.1884 C   0  0  0  0  0  0  0  0  0  0  0  0
  1  9  1  0
  1 14  1  0
  1 17  1  0
  2 17  1  0
  2 18  1  0
  2 19  1  0
  3  5  2  0
  3  6  1  0
  3  7  1  0
  4  6  1  0
  4 16  1  0
  6 10  1  0
  8 10  1  0
  8 15  1  0
 11 13  1  0
 12 14  2  0
 12 19  1  0
 13 15  1  0
 16 17  2  3
M  END
$$$$
