
     RDKit          3D

 22 23  0  0  0  0  0  0  0  0999 V2000
   19.6709   23.6216   21.0968 C   0  0  0  0  0  0  0  0  0  0  0  0
   22.2695   20.2022   20.5606 C   0  0  0  0  0  0  0  0  0  0  0  0
   23.1532   23.4725   16.8491 O   0  0  0  0  0  0  0  0  0  0  0  0
   22.5725   24.2385   23.5557 O   0  0  0  0  0  0  0  0  0  0  0  0
   23.3616   20.4025   22.6801 O   0  0  0  0  0  0  0  0  0  0  0  0
   18.5332   24.5325   21.0798 O   0  0  0  0  0  0  0  0  0  0  0  0
   22.6531   18.7264   20.8113 C   0  0  0  0  0  0  0  0  0  0  0  0
   21.4024   24.1327   15.4202 C   0  0  0  0  0  0  0  0  0  0  0  0
   22.7633   20.9720   21.8231 C   0  0  0  0  0  0  0  0  0  0  0  0
   21.6208   17.9364   20.7170 O   0  0  0  0  0  0  0  0  0  0  0  0
   20.3345   21.8952   19.4432 C   0  0  0  0  0  0  0  0  0  0  0  0
   23.8841   18.7816   19.7975 C   0  0  0  0  0  0  0  0  0  0  0  0
   22.1341   22.4850   21.8579 C   0  0  0  0  0  0  0  0  0  0  0  0
   23.6711   20.2303   19.6917 C   0  0  0  0  0  0  0  0  0  0  0  0
   22.3790   22.4974   17.5049 C   0  0  0  0  0  0  0  0  0  0  0  0
   20.7856   20.5968   19.9931 C   0  0  0  0  0  0  0  0  0  0  0  0
   20.9994   23.7954   21.7522 C   0  0  0  0  0  0  0  0  0  0  0  0
   21.3349   22.6443   18.5006 O   0  0  0  0  0  0  0  0  0  0  0  0
   21.8429   24.8032   22.7147 C   0  0  0  0  0  0  0  0  0  0  0  0
   19.3845   22.7552   20.0373 C   0  0  0  0  0  0  0  0  0  0  0  0
   21.5013   26.0092   22.6095 O   0  0  0  0  0  0  0  0  0  0  0  0
   22.3179   24.6091   16.3931 C   0  0  0  0  0  0  0  0  0  0  0  0
  1  6  1  0
  1 17  1  0
  1 20  2  3
  2  7  1  0
  2  9  1  0
  2 14  1  0
  2 16  1  0
  3 15  1  0
  3 22  1  0
  4 19  2  0
  5  9  1  0
  7 10  1  0
  7 12  1  0
  8 22  1  0
  9 13  2  0
 11 16  1  0
 11 18  1  0
 11 20  1  0
 12 14  1  0
 13 17  2  0
 15 18  1  0
 17 19  1  0
 19 21  1  0
M  END
$$$$
