
     RDKit          3D

 19 19  0  0  0  0  0  0  0  0999 V2000
   24.8894   22.4548   16.7774 C   0  0  0  0  0  0  0  0  0  0  0  0
   19.5515   22.3906   19.8778 C   0  0  0  0  0  0  0  0  0  0  0  0
   21.5262   18.8744   20.4593 C   0  0  0  0  0  0  0  0  0  0  0  0
   21.4474   17.8114   20.8685 O   0  0  0  0  0  0  0  0  0  0  0  0
   20.3141   21.1692   19.1682 C   0  0  0  0  0  0  0  0  0  0  0  0
   18.4684   24.6465   21.0934 O   0  0  0  0  0  0  0  0  0  0  0  0
   22.9348   22.2699   20.0467 C   0  0  0  0  0  0  0  0  0  0  0  0
   25.1734   24.2759   21.1676 Cl  0  0  0  0  0  0  0  0  0  0  0  0
   20.5536   23.5192   21.8061 C   0  0  0  0  0  0  0  0  0  0  0  0
   24.9557   23.5305   19.3988 C   0  0  0  0  0  0  0  0  0  0  0  0
   25.9348   23.8985   18.4264 C   0  0  0  0  0  0  0  0  0  0  0  0
   23.8654   22.6540   18.9935 C   0  0  0  0  0  0  0  0  0  0  0  0
   23.8488   22.1874   17.6031 C   0  0  0  0  0  0  0  0  0  0  0  0
   19.4791   23.5192   20.8404 C   0  0  0  0  0  0  0  0  0  0  0  0
   20.5252   19.9539   20.2108 C   0  0  0  0  0  0  0  0  0  0  0  0
   23.4214   21.1256   20.6400 O   0  0  0  0  0  0  0  0  0  0  0  0
   22.6050   18.6720   19.5854 O   0  0  0  0  0  0  0  0  0  0  0  0
   22.0486   23.3725   20.8662 C   0  0  0  0  0  0  0  0  0  0  0  0
   25.8951   23.3766   17.1361 C   0  0  0  0  0  0  0  0  0  0  0  0
  1 13  1  0
  1 19  2  0
  2  5  1  0
  2 14  2  3
  3  4  2  0
  3 15  1  0
  3 17  1  0
  5 15  1  0
  6 14  1  0
  7 12  1  0
  7 16  1  0
  7 18  1  0
  8 10  1  0
  9 14  1  0
  9 18  1  0
 10 11  2  0
 10 12  1  0
 11 19  1  0
 12 13  2  0
M  END
$$$$
