
     RDKit          3D

 14 15  0  0  0  0  0  0  0  0999 V2000
   18.3716   24.6545   20.9953 O   0  0  0  0  0  0  0  0  0  0  0  0
   23.8550   20.7423   20.3875 C   0  0  0  0  0  0  0  0  0  0  0  0
   22.3430   21.9505   21.9127 C   0  0  0  0  0  0  0  0  0  0  0  0
   19.9104   21.8718   19.6167 C   0  0  0  0  0  0  0  0  0  0  0  0
   24.4202   21.4905   19.0186 C   0  0  0  0  0  0  0  0  0  0  0  0
   22.3664   21.1850   20.5186 C   0  0  0  0  0  0  0  0  0  0  0  0
   20.0282   22.8710   20.9780 C   0  0  0  0  0  0  0  0  0  0  0  0
   22.1349   21.8856   17.9171 C   0  0  0  0  0  0  0  0  0  0  0  0
   21.4575   21.4542   19.1833 C   0  0  0  0  0  0  0  0  0  0  0  0
   22.9574   21.6819   23.2019 O   0  0  0  0  0  0  0  0  0  0  0  0
   23.5925   21.7539   17.7370 C   0  0  0  0  0  0  0  0  0  0  0  0
   21.2460   23.1166   21.8234 C   0  0  0  0  0  0  0  0  0  0  0  0
   24.4033   21.8776   16.6567 C   0  0  0  0  0  0  0  0  0  0  0  0
   19.2244   23.7603   20.8021 C   0  0  0  0  0  0  0  0  0  0  0  0
  1 14  2  0
  2  5  1  0
  2  6  1  0
  3  6  1  0
  3 10  1  0
  3 12  1  0
  4  7  1  0
  4  9  1  0
  5 11  1  0
  6  9  1  0
  7 12  1  0
  7 14  2  0
  8  9  1  0
  8 11  1  0
 11 13  2  0
M  END
$$$$
