
     RDKit          3D

 23 24  0  0  0  0  0  0  0  0999 V2000
   22.4242   21.9431   22.0906 C   0  0  0  0  0  0  0  0  0  0  0  0
   27.2286   23.5724   17.0927 C   0  0  0  0  0  0  0  0  0  0  0  0
   18.5935   24.5871   21.1515 O   0  0  0  0  0  0  0  0  0  0  0  0
   22.1833   21.4498   18.7039 C   0  0  0  0  0  0  0  0  0  0  0  0
   22.5710   24.7617   16.5379 C   0  0  0  0  0  0  0  0  0  0  0  0
   24.9614   20.4901   20.8005 C   0  0  0  0  0  0  0  0  0  0  0  0
   22.8779   20.5237   22.4695 C   0  0  0  0  0  0  0  0  0  0  0  0
   22.8278   19.3853   19.9262 C   0  0  0  0  0  0  0  0  0  0  0  0
   23.6982   22.4402   16.7601 C   0  0  0  0  0  0  0  0  0  0  0  0
   19.8771   23.4998   21.4104 C   0  0  0  0  0  0  0  0  0  0  0  0
   20.0745   22.4984   20.6975 C   0  0  0  0  0  0  0  0  0  0  0  0
   24.5851   25.9151   17.4419 O   0  0  0  0  0  0  0  0  0  0  0  0
   25.9791   22.7697   16.8530 C   0  0  0  0  0  0  0  0  0  0  0  0
   23.7605   19.5113   21.3875 C   0  0  0  0  0  0  0  0  0  0  0  0
   21.7759   23.0390   18.3743 C   0  0  0  0  0  0  0  0  0  0  0  0
   19.4512   22.1595   19.5779 O   0  0  0  0  0  0  0  0  0  0  0  0
   24.7911   23.4691   16.9361 C   0  0  0  0  0  0  0  0  0  0  0  0
   22.2552   23.1714   16.7179 C   0  0  0  0  0  0  0  0  0  0  0  0
   20.1870   23.6074   22.7427 O   0  0  0  0  0  0  0  0  0  0  0  0
   21.3343   21.8161   20.9358 C   0  0  0  0  0  0  0  0  0  0  0  0
   21.6783   20.6048   20.0174 C   0  0  0  0  0  0  0  0  0  0  0  0
   27.1020   24.9767   16.9131 O   0  0  0  0  0  0  0  0  0  0  0  0
   24.0685   24.7808   17.0967 C   0  0  0  0  0  0  0  0  0  0  0  0
  1  7  1  0
  1 20  1  0
  2 13  1  0
  2 22  1  0
  3 10  2  0
  4 15  1  0
  4 21  1  0
  5 18  1  0
  5 23  1  0
  6 14  1  0
  7 14  1  0
  8 14  1  0
  8 21  1  0
  9 17  1  0
  9 18  1  0
 10 11  1  0
 10 19  1  0
 11 16  1  0
 11 20  2  3
 12 23  1  0
 13 17  2  3
 15 18  1  0
 17 23  1  0
 20 21  1  0
M  END
$$$$
