
     RDKit          3D

 12 10  0  0  0  0  0  0  0  0999 V2000
   24.5349   20.8262   19.0093 C   0  0  0  0  0  0  0  0  0  0  0  0
   19.6638   23.7859   21.1096 C   0  0  0  0  0  0  0  0  0  0  0  0
   19.7213   22.7417   20.3580 C   0  0  0  0  0  0  0  0  0  0  0  0
   22.5452   18.6712   20.7808 O   0  0  0  0  0  0  0  0  0  0  0  0
   22.0855   19.9332   21.1713 C   0  0  0  0  0  0  0  0  0  0  0  0
   23.5940   21.7382   17.9322 C   0  0  0  0  0  0  0  0  0  0  0  0
   20.4948   24.7338   21.7526 O   0  0  0  0  0  0  0  0  0  0  0  0
   22.8826   20.4744   22.5353 C   0  0  0  0  0  0  0  0  0  0  0  0
   18.4499   24.6642   21.0644 O   0  0  0  0  0  0  0  0  0  0  0  0
   24.7586   22.4843   16.9464 C   0  0  0  0  0  0  0  0  0  0  0  0
   20.1445   21.7769   19.5384 C   0  0  0  0  0  0  0  0  0  0  0  0
   21.0523   20.5461   19.9798 C   0  0  0  0  0  0  0  0  0  0  0  0
  1  6  1  0
  2  3  2  0
  2  7  1  0
  2  9  1  0
  3 11  2  0
  4  5  1  0
  5  8  1  0
  5 12  2  3
  6 10  1  0
 11 12  1  0
M  END
$$$$
