
     RDKit          3D

 10 10  0  0  0  0  0  0  0  0999 V2000
   -9.2966  -64.1306   18.3686 N   0  0  0  0  0  0  0  0  0  0  0  0
   -8.4589  -63.8486   17.2402 C   0  0  0  0  0  0  0  0  0  0  0  0
   -7.9329  -61.5694   17.9523 C   0  0  0  0  0  0  0  0  0  0  0  0
   -8.7952  -61.3904   16.6659 C   0  0  0  0  0  0  0  0  0  0  0  0
   -9.2345  -62.8697   16.2716 C   0  0  0  0  0  0  0  0  0  0  0  0
   -7.1353  -63.0206   17.8823 C   0  0  0  0  0  0  0  0  0  0  0  0
   -8.0294  -64.9982   16.6028 O   0  0  0  0  0  0  0  0  0  0  0  0
   -5.9903  -62.6599   17.1029 O   0  0  0  0  0  0  0  0  0  0  0  0
   -6.4643  -64.2086   18.7146 N   0  0  0  0  0  0  0  0  0  0  0  0
   -7.1204  -60.4922   18.1968 O   0  0  0  0  0  0  0  0  0  0  0  0
  1  2  1  0
  2  5  1  0
  2  6  1  0
  2  7  1  0
  3  4  1  0
  3  6  1  0
  3 10  1  0
  4  5  1  0
  6  8  1  0
  6  9  1  0
M  END
$$$$
