
     RDKit          3D

 11 12  0  0  0  0  0  0  0  0999 V2000
   -6.6777  -64.6784   17.8107 N   0  0  0  0  0  0  0  0  0  0  0  0
   -9.5980  -64.5228   16.1129 C   0  0  0  0  0  0  0  0  0  0  0  0
  -10.7987  -65.3185   15.8663 C   0  0  0  0  0  0  0  0  0  0  0  0
   -8.3957  -62.7587   16.3058 C   0  0  0  0  0  0  0  0  0  0  0  0
   -9.5046  -63.2166   15.8947 N   0  0  0  0  0  0  0  0  0  0  0  0
   -7.4953  -63.7716   16.8875 C   0  0  0  0  0  0  0  0  0  0  0  0
   -8.4850  -60.3499   16.1780 N   0  0  0  0  0  0  0  0  0  0  0  0
   -6.5537  -61.4690   16.6132 N   0  0  0  0  0  0  0  0  0  0  0  0
   -8.4998  -65.0124   16.5939 N   0  0  0  0  0  0  0  0  0  0  0  0
   -7.8719  -61.4464   16.2496 C   0  0  0  0  0  0  0  0  0  0  0  0
   -6.2207  -62.7692   16.9079 C   0  0  0  0  0  0  0  0  0  0  0  0
  1  6  1  0
  2  3  1  0
  2  5  2  0
  2  9  1  0
  4  5  1  0
  4  6  1  0
  4 10  1  0
  6  9  1  0
  6 11  1  0
  7 10  2  0
  8 10  1  0
  8 11  1  0
M  END
$$$$
