
     RDKit          3D

 25 26  0  0  0  0  0  0  0  0999 V2000
  104.2535    6.0775  -91.0361 C   0  0  0  0  0  0  0  0  0  0  0  0
   98.5767    8.0197  -90.0531 C   0  0  0  0  0  0  0  0  0  0  0  0
  105.2653    4.2269  -92.3057 O   0  0  0  0  0  0  0  0  0  0  0  0
   98.9894   10.1504  -91.1456 C   0  0  0  0  0  0  0  0  0  0  0  0
  100.2438    3.9890  -92.5595 C   0  0  0  0  0  0  0  0  0  0  0  0
  102.2206    8.2495  -91.2453 C   0  0  0  0  0  0  0  0  0  0  0  0
  100.3310    9.8234  -91.3046 C   0  0  0  0  0  0  0  0  0  0  0  0
  100.8016    8.5912  -90.9571 C   0  0  0  0  0  0  0  0  0  0  0  0
  100.2942    4.9945  -90.0171 C   0  0  0  0  0  0  0  0  0  0  0  0
  105.1237    7.3795  -90.7842 C   0  0  0  0  0  0  0  0  0  0  0  0
  100.8901    4.6932  -91.3449 C   0  0  0  0  0  0  0  0  0  0  0  0
   99.4035    3.1040  -92.1860 O   0  0  0  0  0  0  0  0  0  0  0  0
  102.6759    6.7703  -90.9099 C   0  0  0  0  0  0  0  0  0  0  0  0
  100.2489    6.3253  -89.7167 N   0  0  0  0  0  0  0  0  0  0  0  0
  101.9435    5.7085  -91.8024 C   0  0  0  0  0  0  0  0  0  0  0  0
  101.3030    4.0335  -93.6642 C   0  0  0  0  0  0  0  0  0  0  0  0
   99.8842    7.6619  -90.2927 C   0  0  0  0  0  0  0  0  0  0  0  0
   98.1037    9.2490  -90.5196 C   0  0  0  0  0  0  0  0  0  0  0  0
   99.9048    4.0154  -89.2830 O   0  0  0  0  0  0  0  0  0  0  0  0
  101.8506    2.8577  -94.2697 C   0  0  0  0  0  0  0  0  0  0  0  0
  105.3251    4.9791  -91.3386 C   0  0  0  0  0  0  0  0  0  0  0  0
  106.3023    4.8885  -90.5212 O   0  0  0  0  0  0  0  0  0  0  0  0
  103.0822    9.2028  -91.6557 O   0  0  0  0  0  0  0  0  0  0  0  0
  100.6589    1.9957  -94.8755 C   0  0  0  0  0  0  0  0  0  0  0  0
  101.3764    5.1737  -94.3768 O   0  0  0  0  0  0  0  0  0  0  0  0
  1 10  1  0
  1 13  1  0
  1 21  1  0
  2 17  2  0
  2 18  1  0
  3 21  2  0
  4  7  2  0
  4 18  1  0
  5 11  1  0
  5 12  2  0
  5 16  1  0
  6  8  2  3
  6 13  1  0
  6 23  1  0
  7  8  1  0
  8 17  1  0
  9 11  1  0
  9 14  1  0
  9 19  2  0
 11 15  1  0
 13 15  1  0
 14 17  1  0
 16 20  1  0
 16 25  1  0
 20 24  1  0
 21 22  1  0
M  END
$$$$
