
     RDKit          3D

 28 30  0  0  0  0  0  0  0  0999 V2000
  103.2753    4.0063  -91.7884 C   0  0  0  0  0  0  0  0  0  0  0  0
  104.5994    7.6846  -91.0574 C   0  0  0  0  0  0  0  0  0  0  0  0
  103.7549    8.7674  -91.5557 C   0  0  0  0  0  0  0  0  0  0  0  0
  107.3036    4.1221  -92.5574 O   0  0  0  0  0  0  0  0  0  0  0  0
  103.5311    9.9310  -91.7447 O   0  0  0  0  0  0  0  0  0  0  0  0
  100.9455    4.4335  -91.0028 C   0  0  0  0  0  0  0  0  0  0  0  0
   98.9822    3.6340  -89.3183 O   0  0  0  0  0  0  0  0  0  0  0  0
  102.7993    3.7242  -93.0838 C   0  0  0  0  0  0  0  0  0  0  0  0
  100.7793    7.4330  -90.6778 C   0  0  0  0  0  0  0  0  0  0  0  0
   98.7442    8.6909  -90.4986 C   0  0  0  0  0  0  0  0  0  0  0  0
  106.2217    3.9837  -91.7630 C   0  0  0  0  0  0  0  0  0  0  0  0
  106.2833    5.4968  -90.8122 C   0  0  0  0  0  0  0  0  0  0  0  0
   97.0263    8.8553  -89.9682 Cl  0  0  0  0  0  0  0  0  0  0  0  0
  105.9794    7.8801  -91.1524 O   0  0  0  0  0  0  0  0  0  0  0  0
   98.7991    6.2211  -89.8319 N   0  0  0  0  0  0  0  0  0  0  0  0
  100.7685    9.7340  -91.2934 C   0  0  0  0  0  0  0  0  0  0  0  0
   99.8782    4.7540  -89.5670 S   0  0  0  0  0  0  0  0  0  0  0  0
  100.4719    4.2089  -92.3845 C   0  0  0  0  0  0  0  0  0  0  0  0
  104.7125    4.0003  -91.4512 C   0  0  0  0  0  0  0  0  0  0  0  0
  102.3351    4.3010  -90.8043 C   0  0  0  0  0  0  0  0  0  0  0  0
   99.4196    9.8399  -91.0615 C   0  0  0  0  0  0  0  0  0  0  0  0
  100.7997    5.1089  -88.4159 O   0  0  0  0  0  0  0  0  0  0  0  0
   98.6560   11.1272  -91.4856 C   0  0  0  0  0  0  0  0  0  0  0  0
  101.3856    8.5723  -91.1571 C   0  0  0  0  0  0  0  0  0  0  0  0
  104.9112    5.1794  -90.3860 O   0  0  0  0  0  0  0  0  0  0  0  0
  106.6745    6.6788  -91.6947 C   0  0  0  0  0  0  0  0  0  0  0  0
  101.4214    3.8529  -93.3906 C   0  0  0  0  0  0  0  0  0  0  0  0
   99.4505    7.4556  -90.3252 C   0  0  0  0  0  0  0  0  0  0  0  0
  1  8  1  0
  1 19  1  0
  1 20  2  0
  2  3  1  0
  2 14  1  0
  3  5  2  0
  4 11  1  0
  6 17  1  0
  6 18  2  0
  6 20  1  0
  7 17  1  0
  8 27  2  0
  9 24  1  0
  9 28  2  0
 10 13  1  0
 10 21  2  0
 10 28  1  0
 11 12  1  0
 11 19  1  0
 12 25  1  0
 12 26  1  0
 14 26  1  0
 15 17  1  0
 15 28  1  0
 16 21  1  0
 16 24  2  0
 17 22  1  0
 18 27  1  0
 19 25  1  0
 21 23  1  0
M  END
$$$$
