
     RDKit          3D

 28 30  0  0  0  0  0  0  0  0999 V2000
  105.1657    5.1595  -91.9079 O   0  0  0  0  0  0  0  0  0  0  0  0
  101.1576    9.0854  -91.4328 C   0  0  0  0  0  0  0  0  0  0  0  0
   98.8908    3.5070  -88.9922 O   0  0  0  0  0  0  0  0  0  0  0  0
  102.8617    1.4865  -94.7975 O   0  0  0  0  0  0  0  0  0  0  0  0
   99.9412    3.9526  -88.0222 C   0  0  0  0  0  0  0  0  0  0  0  0
  102.5141    9.0298  -91.5209 C   0  0  0  0  0  0  0  0  0  0  0  0
  103.1504    7.8019  -91.1006 C   0  0  0  0  0  0  0  0  0  0  0  0
  105.7055    2.5015  -90.9136 O   0  0  0  0  0  0  0  0  0  0  0  0
  102.9644    2.3612  -93.7571 C   0  0  0  0  0  0  0  0  0  0  0  0
  102.7520    4.1285  -91.1200 C   0  0  0  0  0  0  0  0  0  0  0  0
  100.3129    7.8760  -91.1718 C   0  0  0  0  0  0  0  0  0  0  0  0
  101.8756    3.1722  -91.7182 O   0  0  0  0  0  0  0  0  0  0  0  0
  102.4026    6.6481  -90.8910 C   0  0  0  0  0  0  0  0  0  0  0  0
  104.6818    2.8289  -91.7565 C   0  0  0  0  0  0  0  0  0  0  0  0
   98.0421    4.4660  -89.6030 C   0  0  0  0  0  0  0  0  0  0  0  0
  100.9498    6.7001  -90.7440 C   0  0  0  0  0  0  0  0  0  0  0  0
  104.7954    8.0107  -91.1790 S   0  0  0  0  0  0  0  0  0  0  0  0
  104.3085    2.2615  -93.0955 C   0  0  0  0  0  0  0  0  0  0  0  0
  104.2147    4.2512  -91.5364 C   0  0  0  0  0  0  0  0  0  0  0  0
   98.1593    6.7165  -90.9007 C   0  0  0  0  0  0  0  0  0  0  0  0
   98.8338    5.6381  -90.2434 C   0  0  0  0  0  0  0  0  0  0  0  0
  105.5404    9.8021  -92.7925 O   0  0  0  0  0  0  0  0  0  0  0  0
  105.3804    2.0344  -93.9662 O   0  0  0  0  0  0  0  0  0  0  0  0
  103.5877    9.8974  -91.7232 N   0  0  0  0  0  0  0  0  0  0  0  0
  104.8269    9.4526  -91.8443 C   0  0  0  0  0  0  0  0  0  0  0  0
   98.9017    7.8338  -91.3347 C   0  0  0  0  0  0  0  0  0  0  0  0
  100.1882    5.6779  -90.2204 C   0  0  0  0  0  0  0  0  0  0  0  0
  101.7155    2.9973  -93.1926 C   0  0  0  0  0  0  0  0  0  0  0  0
  1 19  1  0
  2  6  2  0
  2 11  1  0
  3  5  1  0
  3 15  1  0
  4  9  1  0
  6  7  1  0
  6 24  1  0
  7 13  1  0
  7 17  1  0
  8 14  1  0
  9 18  1  0
  9 28  1  0
 10 12  1  0
 10 19  1  0
 11 16  2  0
 11 26  1  0
 12 28  1  0
 13 16  1  0
 14 18  1  0
 14 19  1  0
 15 21  1  0
 16 27  1  0
 17 25  1  0
 18 23  1  0
 20 21  1  0
 20 26  2  0
 21 27  2  0
 22 25  2  0
 24 25  1  0
M  END
$$$$
