
     RDKit          3D

 27 27  0  0  0  0  0  0  0  0999 V2000
   99.5742    7.5340  -91.2132 C   0  0  0  0  0  0  0  0  0  0  0  0
  104.5021    4.9028  -91.5045 C   0  0  0  0  0  0  0  0  0  0  0  0
   99.3190    5.4713  -89.8427 N   0  0  0  0  0  0  0  0  0  0  0  0
  104.8041    3.7917  -92.3959 C   0  0  0  0  0  0  0  0  0  0  0  0
   98.4858    8.4004  -91.1616 C   0  0  0  0  0  0  0  0  0  0  0  0
  105.3985    5.0175  -90.4893 O   0  0  0  0  0  0  0  0  0  0  0  0
   99.8117    4.0948  -87.9019 C   0  0  0  0  0  0  0  0  0  0  0  0
  103.6482    3.0055  -92.8921 C   0  0  0  0  0  0  0  0  0  0  0  0
  100.8540    8.0810  -91.2215 C   0  0  0  0  0  0  0  0  0  0  0  0
   99.9538   10.2959  -91.2343 C   0  0  0  0  0  0  0  0  0  0  0  0
  100.3187    5.1917  -92.2127 C   0  0  0  0  0  0  0  0  0  0  0  0
  106.0300    3.1175  -92.0793 C   0  0  0  0  0  0  0  0  0  0  0  0
   99.4436    2.8141  -87.8329 O   0  0  0  0  0  0  0  0  0  0  0  0
  101.5431    4.6206  -94.2118 C   0  0  0  0  0  0  0  0  0  0  0  0
  106.0158    2.3739  -90.9333 O   0  0  0  0  0  0  0  0  0  0  0  0
  102.4239    3.5065  -92.1586 C   0  0  0  0  0  0  0  0  0  0  0  0
   98.8971    5.0596  -88.5326 C   0  0  0  0  0  0  0  0  0  0  0  0
  103.5317    5.9930  -91.1467 C   0  0  0  0  0  0  0  0  0  0  0  0
  101.7420    4.6594  -92.7390 N   0  0  0  0  0  0  0  0  0  0  0  0
  102.3709    3.2516  -90.9118 O   0  0  0  0  0  0  0  0  0  0  0  0
   99.5116    3.8681  -92.1277 O   0  0  0  0  0  0  0  0  0  0  0  0
  102.4891    9.7602  -91.3938 C   0  0  0  0  0  0  0  0  0  0  0  0
  107.0413    3.7257  -92.5234 O   0  0  0  0  0  0  0  0  0  0  0  0
   98.6699    9.7756  -91.1788 C   0  0  0  0  0  0  0  0  0  0  0  0
  101.0875    9.4134  -91.2826 C   0  0  0  0  0  0  0  0  0  0  0  0
   99.4110    6.0539  -91.2426 C   0  0  0  0  0  0  0  0  0  0  0  0
  101.1099    4.6408  -87.4685 C   0  0  0  0  0  0  0  0  0  0  0  0
  1  5  2  0
  1  9  1  0
  1 26  1  0
  2  4  1  0
  2  6  1  0
  2 18  1  0
  3 17  1  0
  3 26  1  0
  4  8  1  0
  4 12  1  0
  5 24  1  0
  7 13  1  0
  7 17  1  0
  7 27  1  0
  8 16  1  0
  9 25  2  0
 10 24  2  0
 10 25  1  0
 11 19  1  0
 11 21  2  0
 11 26  1  0
 12 15  2  0
 12 23  1  0
 14 19  1  0
 16 19  1  0
 16 20  2  0
 22 25  1  0
M  END
$$$$
