
     RDKit          3D

 25 26  0  0  0  0  0  0  0  0999 V2000
   99.8614    4.0857  -90.1216 O   0  0  0  0  0  0  0  0  0  0  0  0
  103.3859    9.2921  -91.3921 O   0  0  0  0  0  0  0  0  0  0  0  0
   97.8308    9.5193  -90.7054 C   0  0  0  0  0  0  0  0  0  0  0  0
  106.9436    2.9166  -90.6223 O   0  0  0  0  0  0  0  0  0  0  0  0
   99.4877    6.4574  -91.5871 C   0  0  0  0  0  0  0  0  0  0  0  0
  104.5208    5.1837  -90.9386 C   0  0  0  0  0  0  0  0  0  0  0  0
  104.7261    6.7215  -91.0274 C   0  0  0  0  0  0  0  0  0  0  0  0
  105.8921    2.3988  -93.1662 O   0  0  0  0  0  0  0  0  0  0  0  0
  105.7531    2.8995  -91.7033 P   0  0  0  0  0  0  0  0  0  0  0  0
   98.8030    8.5962  -90.9286 C   0  0  0  0  0  0  0  0  0  0  0  0
   97.8629    3.6382  -90.9175 O   0  0  0  0  0  0  0  0  0  0  0  0
  100.1435    9.0022  -91.0930 C   0  0  0  0  0  0  0  0  0  0  0  0
  103.3526    7.0510  -90.6799 C   0  0  0  0  0  0  0  0  0  0  0  0
   98.5232    7.2402  -91.0597 N   0  0  0  0  0  0  0  0  0  0  0  0
   99.3401   11.2154  -91.0526 C   0  0  0  0  0  0  0  0  0  0  0  0
  101.2618    8.1376  -91.2025 N   0  0  0  0  0  0  0  0  0  0  0  0
  102.6825    8.2416  -91.2560 C   0  0  0  0  0  0  0  0  0  0  0  0
  101.6687    5.9614  -92.0840 O   0  0  0  0  0  0  0  0  0  0  0  0
   98.1024   10.8527  -90.8111 C   0  0  0  0  0  0  0  0  0  0  0  0
  100.9182    6.8209  -91.4906 C   0  0  0  0  0  0  0  0  0  0  0  0
  100.3283   10.2103  -91.1676 C   0  0  0  0  0  0  0  0  0  0  0  0
  105.3320    4.5911  -92.0248 C   0  0  0  0  0  0  0  0  0  0  0  0
  104.7068    2.1655  -90.8957 O   0  0  0  0  0  0  0  0  0  0  0  0
   98.9183    4.1423  -91.0767 C   0  0  0  0  0  0  0  0  0  0  0  0
   99.1988    5.1201  -92.1914 C   0  0  0  0  0  0  0  0  0  0  0  0
  1 24  2  0
  2 17  2  0
  3 10  2  0
  3 19  1  0
  4  9  1  0
  5 14  1  0
  5 20  1  0
  5 25  1  0
  6  7  1  0
  6 22  1  0
  7 13  1  0
  8  9  1  0
  9 22  1  0
  9 23  1  0
 10 12  1  0
 10 14  1  0
 11 24  1  0
 12 16  1  0
 12 21  2  0
 13 17  1  0
 15 19  2  0
 15 21  1  0
 16 17  1  0
 16 20  1  0
 18 20  2  0
 24 25  1  0
M  END
$$$$
