
     RDKit          3D

 18 18  0  0  0  0  0  0  0  0999 V2000
  101.8252    5.8027  -91.4976 C   0  0  0  0  0  0  0  0  0  0  0  0
  100.1464    4.5193  -89.6695 C   0  0  0  0  0  0  0  0  0  0  0  0
   99.0779    3.7133  -89.5336 O   0  0  0  0  0  0  0  0  0  0  0  0
  106.2906    4.0617  -92.5833 O   0  0  0  0  0  0  0  0  0  0  0  0
   99.3269   10.9895  -91.2735 C   0  0  0  0  0  0  0  0  0  0  0  0
   99.6381    4.7929  -92.3307 C   0  0  0  0  0  0  0  0  0  0  0  0
   99.3506    8.6172  -90.6251 C   0  0  0  0  0  0  0  0  0  0  0  0
  105.0847    2.9813  -91.0265 O   0  0  0  0  0  0  0  0  0  0  0  0
  100.6800    4.6718  -91.1329 C   0  0  0  0  0  0  0  0  0  0  0  0
  101.3851    9.5210  -91.5033 C   0  0  0  0  0  0  0  0  0  0  0  0
   99.9788    7.4000  -90.6660 C   0  0  0  0  0  0  0  0  0  0  0  0
  105.2762    4.0623  -91.7155 C   0  0  0  0  0  0  0  0  0  0  0  0
  101.2453    7.1909  -91.2316 C   0  0  0  0  0  0  0  0  0  0  0  0
  103.0387    4.9809  -91.8804 C   0  0  0  0  0  0  0  0  0  0  0  0
  100.0460    9.7316  -91.1500 C   0  0  0  0  0  0  0  0  0  0  0  0
  101.9692    8.3467  -91.6131 C   0  0  0  0  0  0  0  0  0  0  0  0
  101.0073    4.7887  -88.7217 O   0  0  0  0  0  0  0  0  0  0  0  0
  104.3999    5.2415  -91.3267 C   0  0  0  0  0  0  0  0  0  0  0  0
  1  9  1  0
  1 13  2  3
  1 14  1  0
  2  3  2  0
  2  9  1  0
  2 17  1  0
  4 12  2  0
  5 15  1  0
  6  9  1  0
  7 11  2  0
  7 15  1  0
  8 12  1  0
 10 15  1  0
 10 16  2  0
 11 13  1  0
 12 18  1  0
 13 16  1  0
 14 18  1  0
M  END
$$$$
