
     RDKit          3D

 25 25  0  0  0  0  0  0  0  0999 V2000
  100.0790    7.3972  -90.7037 C   0  0  0  0  0  0  0  0  0  0  0  0
  101.3993    3.8684  -93.5829 C   0  0  0  0  0  0  0  0  0  0  0  0
  101.7266    3.8817  -89.9655 C   0  0  0  0  0  0  0  0  0  0  0  0
  105.4924    2.2734  -93.6623 O   0  0  0  0  0  0  0  0  0  0  0  0
   98.7182    7.9069  -90.1848 C   0  0  0  0  0  0  0  0  0  0  0  0
  102.8935    4.7195  -91.9477 C   0  0  0  0  0  0  0  0  0  0  0  0
   99.9213    9.7060  -91.0481 O   0  0  0  0  0  0  0  0  0  0  0  0
  101.4324    4.8827  -91.2067 C   0  0  0  0  0  0  0  0  0  0  0  0
   99.4359   10.8836  -91.5013 C   0  0  0  0  0  0  0  0  0  0  0  0
  104.3552    6.4355  -90.5277 C   0  0  0  0  0  0  0  0  0  0  0  0
  104.2060    1.9625  -93.7251 N   0  0  0  0  0  0  0  0  0  0  0  0
   99.1127    5.1145  -89.8865 C   0  0  0  0  0  0  0  0  0  0  0  0
  103.2271    2.4222  -92.8302 C   0  0  0  0  0  0  0  0  0  0  0  0
  102.6545    1.6398  -92.0447 O   0  0  0  0  0  0  0  0  0  0  0  0
  100.6155    4.8747  -92.6402 C   0  0  0  0  0  0  0  0  0  0  0  0
  100.8052    8.6067  -91.1016 C   0  0  0  0  0  0  0  0  0  0  0  0
  104.3159    5.2183  -91.4999 C   0  0  0  0  0  0  0  0  0  0  0  0
  105.7338    8.3134  -90.2094 O   0  0  0  0  0  0  0  0  0  0  0  0
  100.3769    5.9283  -90.3378 C   0  0  0  0  0  0  0  0  0  0  0  0
  105.4490    7.3680  -90.9636 C   0  0  0  0  0  0  0  0  0  0  0  0
  106.0967    6.9954  -92.0339 O   0  0  0  0  0  0  0  0  0  0  0  0
  102.0066    8.6277  -91.2795 O   0  0  0  0  0  0  0  0  0  0  0  0
  102.7794    3.7215  -93.0201 N   0  0  0  0  0  0  0  0  0  0  0  0
   98.5036    9.2064  -90.9528 C   0  0  0  0  0  0  0  0  0  0  0  0
   98.8503    3.7017  -90.1520 O   0  0  0  0  0  0  0  0  0  0  0  0
  1  5  1  0
  1 16  1  0
  1 19  1  0
  2 15  1  0
  2 23  1  0
  3  8  1  0
  4 11  1  0
  5 24  1  0
  6  8  1  0
  6 17  1  0
  6 23  1  0
  7  9  1  0
  7 16  1  0
  8 15  1  0
  8 19  1  0
 10 17  1  0
 10 20  1  0
 11 13  1  0
 12 19  1  0
 12 25  1  0
 13 14  2  0
 13 23  1  0
 16 22  2  0
 18 20  2  0
 20 21  1  0
M  END
$$$$
