
     RDKit          3D

 22 23  0  0  0  0  0  0  0  0999 V2000
   99.0549    5.0827  -92.4754 O   0  0  0  0  0  0  0  0  0  0  0  0
  101.7584    3.6131  -92.4276 C   0  0  0  0  0  0  0  0  0  0  0  0
  101.3430    4.9964  -91.9190 C   0  0  0  0  0  0  0  0  0  0  0  0
   99.8213    5.1376  -91.3317 C   0  0  0  0  0  0  0  0  0  0  0  0
  101.4158    9.0677  -91.4052 C   0  0  0  0  0  0  0  0  0  0  0  0
   98.4142   11.3841  -91.2142 C   0  0  0  0  0  0  0  0  0  0  0  0
  100.8152    2.5716  -92.6029 O   0  0  0  0  0  0  0  0  0  0  0  0
  106.0046    4.5592  -90.6594 O   0  0  0  0  0  0  0  0  0  0  0  0
  102.6750    5.6275  -91.5433 N   0  0  0  0  0  0  0  0  0  0  0  0
  105.9721    3.5455  -92.7738 O   0  0  0  0  0  0  0  0  0  0  0  0
   98.8062    4.7534  -88.2874 O   0  0  0  0  0  0  0  0  0  0  0  0
  100.8514    7.8392  -91.0537 C   0  0  0  0  0  0  0  0  0  0  0  0
   99.2205   10.0944  -91.1631 C   0  0  0  0  0  0  0  0  0  0  0  0
   99.0360    6.1399  -90.3879 C   0  0  0  0  0  0  0  0  0  0  0  0
   99.4883    5.7935  -88.8975 C   0  0  0  0  0  0  0  0  0  0  0  0
  100.5186   10.0226  -91.3548 C   0  0  0  0  0  0  0  0  0  0  0  0
   99.5147    7.6462  -90.7560 C   0  0  0  0  0  0  0  0  0  0  0  0
   98.6683    8.8225  -90.8489 C   0  0  0  0  0  0  0  0  0  0  0  0
  105.4307    4.4013  -91.8361 C   0  0  0  0  0  0  0  0  0  0  0  0
  103.2013    3.3962  -92.0581 C   0  0  0  0  0  0  0  0  0  0  0  0
  103.9284    4.7517  -91.8657 C   0  0  0  0  0  0  0  0  0  0  0  0
   97.5946    6.0006  -90.3882 O   0  0  0  0  0  0  0  0  0  0  0  0
  1  4  1  0
  2  3  1  0
  2  7  1  0
  2 20  1  0
  3  4  1  0
  3  9  1  0
  4 14  1  0
  5 12  1  0
  5 16  1  0
  6 13  1  0
  8 19  2  0
  9 21  1  0
 10 19  1  0
 11 15  1  0
 12 17  2  0
 13 16  2  0
 13 18  1  0
 14 15  1  0
 14 17  1  0
 14 22  1  0
 17 18  1  0
 19 21  1  0
 20 21  1  0
M  END
$$$$
