
     RDKit          3D

 35 37  0  0  0  0  0  0  0  0999 V2000
  106.6070    6.2513  -91.7336 C   0  0  0  0  0  0  0  0  0  0  0  0
   98.7307    4.2237  -86.9856 O   0  0  0  0  0  0  0  0  0  0  0  0
  100.6825    6.5585  -90.2847 N   0  0  0  0  0  0  0  0  0  0  0  0
   97.4599    8.4878  -89.9903 C   0  0  0  0  0  0  0  0  0  0  0  0
  108.0507    8.9745  -92.6093 C   0  0  0  0  0  0  0  0  0  0  0  0
   99.6874    7.6371  -90.3916 C   0  0  0  0  0  0  0  0  0  0  0  0
  100.1060    5.3726  -92.7639 S   0  0  0  0  0  0  0  0  0  0  0  0
  105.6824    7.4559  -91.3545 C   0  0  0  0  0  0  0  0  0  0  0  0
  106.7622    4.7429  -91.8319 C   0  0  0  0  0  0  0  0  0  0  0  0
  104.5618    3.8895  -91.5388 C   0  0  0  0  0  0  0  0  0  0  0  0
  100.1334    2.5608  -87.4106 O   0  0  0  0  0  0  0  0  0  0  0  0
   99.8601    3.7080  -87.3828 C   0  0  0  0  0  0  0  0  0  0  0  0
  107.5487    4.2362  -92.5744 O   0  0  0  0  0  0  0  0  0  0  0  0
   97.8395    9.6791  -90.5156 N   0  0  0  0  0  0  0  0  0  0  0  0
  104.4772    1.8796  -93.9696 O   0  0  0  0  0  0  0  0  0  0  0  0
  101.3005    5.0476  -93.8892 C   0  0  0  0  0  0  0  0  0  0  0  0
  105.8314    4.1242  -90.9971 O   0  0  0  0  0  0  0  0  0  0  0  0
  103.7411    2.6707  -91.3645 C   0  0  0  0  0  0  0  0  0  0  0  0
  102.2964    2.8032  -91.7678 C   0  0  0  0  0  0  0  0  0  0  0  0
  101.4341    3.6291  -94.1774 C   0  0  0  0  0  0  0  0  0  0  0  0
   99.4539   11.1164  -91.3834 N   0  0  0  0  0  0  0  0  0  0  0  0
  100.1192    8.8633  -90.9041 C   0  0  0  0  0  0  0  0  0  0  0  0
  101.5852    9.1035  -91.4200 C   0  0  0  0  0  0  0  0  0  0  0  0
  107.8786    6.8964  -92.0778 C   0  0  0  0  0  0  0  0  0  0  0  0
  104.0390    1.1628  -91.0884 C   0  0  0  0  0  0  0  0  0  0  0  0
   99.1548    9.9097  -90.9678 C   0  0  0  0  0  0  0  0  0  0  0  0
   98.3719    7.4481  -89.9200 C   0  0  0  0  0  0  0  0  0  0  0  0
  103.1581    1.8990  -93.9962 C   0  0  0  0  0  0  0  0  0  0  0  0
  102.2208    2.8277  -93.2883 C   0  0  0  0  0  0  0  0  0  0  0  0
  100.9175    4.7533  -87.8694 C   0  0  0  0  0  0  0  0  0  0  0  0
  100.6742    5.3640  -91.2496 C   0  0  0  0  0  0  0  0  0  0  0  0
   99.8509    4.4442  -90.0834 C   0  0  0  0  0  0  0  0  0  0  0  0
  108.3195    8.0604  -91.4041 C   0  0  0  0  0  0  0  0  0  0  0  0
  107.6252    7.7638  -93.2579 C   0  0  0  0  0  0  0  0  0  0  0  0
  100.2816    5.5625  -89.0889 C   0  0  0  0  0  0  0  0  0  0  0  0
  1  8  1  0
  1  9  1  0
  1 24  1  0
  2 12  2  0
  3  6  1  0
  3 31  1  0
  3 35  1  0
  4 14  2  0
  4 27  1  0
  5 33  1  0
  5 34  1  0
  6 22  1  0
  6 27  2  0
  7 16  1  0
  7 31  1  0
  9 13  2  0
  9 17  1  0
 10 17  1  0
 10 18  1  0
 11 12  1  0
 12 30  1  0
 14 26  1  0
 15 28  1  0
 16 20  1  0
 18 19  1  0
 18 25  1  0
 19 29  1  0
 20 29  1  0
 21 26  2  0
 22 23  1  0
 22 26  1  0
 24 33  1  0
 24 34  1  0
 28 29  1  0
 30 35  1  0
 31 32  1  0
 32 35  1  0
M  END
$$$$
