
     RDKit          3D

 25 28  0  0  0  0  0  0  0  0999 V2000
   97.7738    4.5886  -89.0923 C   0  0  0  0  0  0  0  0  0  0  0  0
  101.6333    2.9058  -92.1083 O   0  0  0  0  0  0  0  0  0  0  0  0
  101.8816    6.5563  -91.3881 C   0  0  0  0  0  0  0  0  0  0  0  0
   99.8720    5.8871  -92.5866 C   0  0  0  0  0  0  0  0  0  0  0  0
   98.0887    9.7162  -90.8865 C   0  0  0  0  0  0  0  0  0  0  0  0
   99.8725    8.1443  -91.2219 C   0  0  0  0  0  0  0  0  0  0  0  0
  100.1477   10.3488  -91.2037 C   0  0  0  0  0  0  0  0  0  0  0  0
   98.5569    8.4142  -91.0545 C   0  0  0  0  0  0  0  0  0  0  0  0
  104.0557    4.5302  -91.6651 C   0  0  0  0  0  0  0  0  0  0  0  0
  105.6882    2.5593  -91.8211 C   0  0  0  0  0  0  0  0  0  0  0  0
   99.2670    5.9386  -90.2204 N   0  0  0  0  0  0  0  0  0  0  0  0
  104.2364    3.0071  -91.5421 C   0  0  0  0  0  0  0  0  0  0  0  0
  105.9392    2.5522  -93.0910 O   0  0  0  0  0  0  0  0  0  0  0  0
  102.1857    9.0189  -92.0064 O   0  0  0  0  0  0  0  0  0  0  0  0
  100.7690    4.8005  -93.0732 C   0  0  0  0  0  0  0  0  0  0  0  0
   98.5217    5.4855  -88.2500 C   0  0  0  0  0  0  0  0  0  0  0  0
   98.9510   10.7776  -91.0013 C   0  0  0  0  0  0  0  0  0  0  0  0
  100.3491    6.6363  -91.2570 C   0  0  0  0  0  0  0  0  0  0  0  0
  100.7858    9.2410  -91.4029 C   0  0  0  0  0  0  0  0  0  0  0  0
  102.6051    5.1663  -91.4784 C   0  0  0  0  0  0  0  0  0  0  0  0
  101.6662    4.1643  -92.0861 C   0  0  0  0  0  0  0  0  0  0  0  0
   99.3074    6.1225  -89.0145 N   0  0  0  0  0  0  0  0  0  0  0  0
   98.1678    4.8336  -90.3111 N   0  0  0  0  0  0  0  0  0  0  0  0
  106.2932    2.2327  -90.7194 O   0  0  0  0  0  0  0  0  0  0  0  0
  102.7141    7.7868  -91.1569 C   0  0  0  0  0  0  0  0  0  0  0  0
  1 16  1  0
  1 23  1  0
  2 21  2  0
  3 18  1  0
  3 20  1  0
  3 25  1  0
  4 15  1  0
  4 18  1  0
  5  8  1  0
  5 17  1  0
  6  8  2  0
  6 18  1  0
  6 19  1  0
  7 17  1  0
  7 19  2  0
  9 12  1  0
  9 20  1  0
 10 12  1  0
 10 13  2  0
 10 24  1  0
 11 18  1  0
 11 22  1  0
 11 23  1  0
 14 19  1  0
 14 25  1  0
 15 21  1  0
 16 22  1  0
 20 21  1  0
M  END
$$$$
