
     RDKit          3D

 21 22  0  0  0  0  0  0  0  0999 V2000
  101.7933    4.3138  -92.4765 C   0  0  0  0  0  0  0  0  0  0  0  0
  100.8448    9.7290  -91.2284 C   0  0  0  0  0  0  0  0  0  0  0  0
   98.5038    9.2234  -91.1676 C   0  0  0  0  0  0  0  0  0  0  0  0
  103.2764    4.0597  -92.8060 C   0  0  0  0  0  0  0  0  0  0  0  0
   99.1479   11.5668  -90.8840 C   0  0  0  0  0  0  0  0  0  0  0  0
  106.1779    2.3563  -90.7517 N   0  0  0  0  0  0  0  0  0  0  0  0
   99.5321   10.1575  -91.1187 C   0  0  0  0  0  0  0  0  0  0  0  0
  100.1268    7.4316  -91.3329 C   0  0  0  0  0  0  0  0  0  0  0  0
  105.1833    2.6759  -91.7401 C   0  0  0  0  0  0  0  0  0  0  0  0
  102.7129    1.6303  -91.9104 O   0  0  0  0  0  0  0  0  0  0  0  0
  104.5092    4.1857  -91.7914 C   0  0  0  0  0  0  0  0  0  0  0  0
  101.1645    8.3976  -91.4037 C   0  0  0  0  0  0  0  0  0  0  0  0
  104.1179    0.7142  -90.6716 O   0  0  0  0  0  0  0  0  0  0  0  0
   99.5163    4.7847  -91.4549 C   0  0  0  0  0  0  0  0  0  0  0  0
  105.9153    2.7893  -93.0297 O   0  0  0  0  0  0  0  0  0  0  0  0
   98.8118    7.8849  -91.2956 C   0  0  0  0  0  0  0  0  0  0  0  0
  100.2706    3.8449  -92.4611 C   0  0  0  0  0  0  0  0  0  0  0  0
  100.4842    5.9727  -91.2754 C   0  0  0  0  0  0  0  0  0  0  0  0
   97.9956    4.9449  -91.8060 C   0  0  0  0  0  0  0  0  0  0  0  0
  101.7724    5.6785  -91.9116 N   0  0  0  0  0  0  0  0  0  0  0  0
  103.9801    1.6786  -91.4236 C   0  0  0  0  0  0  0  0  0  0  0  0
  1  4  1  0
  1 17  1  0
  1 20  1  0
  2  7  1  0
  2 12  2  0
  3  7  1  0
  3 16  2  0
  4 11  1  0
  5  7  1  0
  6  9  1  0
  8 12  1  0
  8 16  1  0
  8 18  1  0
  9 11  1  0
  9 15  1  0
  9 21  1  0
 10 21  2  0
 13 21  1  0
 14 17  1  0
 14 18  1  0
 14 19  1  0
 18 20  1  0
M  END
$$$$
