
     RDKit          3D

 21 23  0  0  0  0  0  0  0  0999 V2000
   -8.5621    6.2510  -27.7624 C   0  0  0  0  0  0  0  0  0  0  0  0
  -10.6475    4.8303  -26.8684 C   0  0  0  0  0  0  0  0  0  0  0  0
   -9.4278    3.7026  -30.2579 C   0  0  0  0  0  0  0  0  0  0  0  0
   -7.7985    3.3698  -32.0392 C   0  0  0  0  0  0  0  0  0  0  0  0
   -8.5520    4.8133  -28.3495 C   0  0  0  0  0  0  0  0  0  0  0  0
  -11.2716    5.9422  -26.2084 O   0  0  0  0  0  0  0  0  0  0  0  0
  -11.2933    2.6606  -29.3561 O   0  0  0  0  0  0  0  0  0  0  0  0
   -9.3031    3.3670  -31.7040 C   0  0  0  0  0  0  0  0  0  0  0  0
   -7.1961    3.9489  -30.7634 C   0  0  0  0  0  0  0  0  0  0  0  0
   -6.1144    3.8874  -30.1908 O   0  0  0  0  0  0  0  0  0  0  0  0
   -8.5071    5.8594  -30.8824 O   0  0  0  0  0  0  0  0  0  0  0  0
   -9.8125    2.1973  -32.3814 C   0  0  0  0  0  0  0  0  0  0  0  0
   -7.4362    3.7517  -33.3212 O   0  0  0  0  0  0  0  0  0  0  0  0
   -9.8936    4.0583  -27.9450 C   0  0  0  0  0  0  0  0  0  0  0  0
   -9.1357    6.9666  -26.7374 N   0  0  0  0  0  0  0  0  0  0  0  0
   -5.9826    2.1238  -32.1250 O   0  0  0  0  0  0  0  0  0  0  0  0
   -8.7020    1.3166  -32.4599 O   0  0  0  0  0  0  0  0  0  0  0  0
   -7.4003    1.9440  -32.0522 C   0  0  0  0  0  0  0  0  0  0  0  0
   -7.7843    6.9599  -28.2891 O   0  0  0  0  0  0  0  0  0  0  0  0
   -8.3072    4.7277  -29.9277 C   0  0  0  0  0  0  0  0  0  0  0  0
  -10.4486    3.6263  -29.2781 C   0  0  0  0  0  0  0  0  0  0  0  0
  1  5  1  0
  1 15  1  0
  1 19  2  0
  2  6  1  0
  2 14  1  0
  3  8  1  0
  3 20  1  0
  3 21  1  0
  4  8  1  0
  4  9  1  0
  4 13  1  0
  4 18  1  0
  5 14  1  0
  5 20  1  0
  7 21  1  0
  8 12  1  0
  9 10  2  0
  9 20  1  0
 11 20  1  0
 12 17  1  0
 14 21  1  0
 16 18  2  0
 17 18  1  0
M  END
$$$$
