
     RDKit          3D

 20 20  0  0  0  0  0  0  0  0999 V2000
   -6.0234    2.0997  -32.2122 O   0  0  0  0  0  0  0  0  0  0  0  0
  -10.1157    3.8950  -28.8106 C   0  0  0  0  0  0  0  0  0  0  0  0
   -8.0354    5.0360  -28.7515 C   0  0  0  0  0  0  0  0  0  0  0  0
   -7.5700    3.3838  -31.0051 C   0  0  0  0  0  0  0  0  0  0  0  0
  -11.0748    2.9919  -30.8483 C   0  0  0  0  0  0  0  0  0  0  0  0
   -8.7688    7.0208  -27.2636 O   0  0  0  0  0  0  0  0  0  0  0  0
   -8.3641    1.5451  -32.4220 O   0  0  0  0  0  0  0  0  0  0  0  0
   -7.3741    2.5688  -32.2942 C   0  0  0  0  0  0  0  0  0  0  0  0
   -9.7819    3.2556  -30.1062 C   0  0  0  0  0  0  0  0  0  0  0  0
   -9.3505    4.8763  -28.1186 C   0  0  0  0  0  0  0  0  0  0  0  0
   -9.5878    5.9532  -27.2080 C   0  0  0  0  0  0  0  0  0  0  0  0
   -9.5470    5.5386  -30.7012 C   0  0  0  0  0  0  0  0  0  0  0  0
   -9.2877    6.5459  -31.7639 O   0  0  0  0  0  0  0  0  0  0  0  0
   -8.8994    4.2059  -30.9805 C   0  0  0  0  0  0  0  0  0  0  0  0
   -7.1825    2.8684  -29.8178 O   0  0  0  0  0  0  0  0  0  0  0  0
   -8.1942    5.4676  -30.1098 C   0  0  0  0  0  0  0  0  0  0  0  0
  -10.8676    3.1476  -28.0901 O   0  0  0  0  0  0  0  0  0  0  0  0
   -7.4002    3.5161  -33.3643 O   0  0  0  0  0  0  0  0  0  0  0  0
  -10.7030    5.9007  -26.4182 N   0  0  0  0  0  0  0  0  0  0  0  0
   -7.0406    4.9784  -27.7792 C   0  0  0  0  0  0  0  0  0  0  0  0
  1  8  1  0
  2  9  1  0
  2 10  1  0
  2 17  2  0
  3 10  1  0
  3 16  2  0
  3 20  1  0
  4  8  1  0
  4 14  1  0
  4 15  1  0
  5  9  1  0
  6 11  2  0
  7  8  1  0
  8 18  1  0
  9 14  1  0
 10 11  1  0
 11 19  1  0
 12 13  1  0
 12 14  1  0
 12 16  1  0
M  END
$$$$
