
     RDKit          3D

 20 21  0  0  0  0  0  0  0  0999 V2000
   -8.9837    5.2753  -28.6012 C   0  0  0  0  0  0  0  0  0  0  0  0
   -9.6332    3.5702  -30.5064 C   0  0  0  0  0  0  0  0  0  0  0  0
  -10.8572    4.8847  -26.9067 N   0  0  0  0  0  0  0  0  0  0  0  0
  -10.7404    4.1352  -28.0119 N   0  0  0  0  0  0  0  0  0  0  0  0
  -11.1671    3.7855  -30.6943 O   0  0  0  0  0  0  0  0  0  0  0  0
   -7.0764    1.9806  -31.8336 C   0  0  0  0  0  0  0  0  0  0  0  0
   -5.9122    2.1073  -32.1995 O   0  0  0  0  0  0  0  0  0  0  0  0
   -9.6288    3.9465  -28.9051 C   0  0  0  0  0  0  0  0  0  0  0  0
   -8.2585    3.9192  -31.0302 C   0  0  0  0  0  0  0  0  0  0  0  0
   -8.0430    5.5148  -29.7390 C   0  0  0  0  0  0  0  0  0  0  0  0
  -10.1966    6.0115  -26.6805 N   0  0  0  0  0  0  0  0  0  0  0  0
   -7.4438    3.6303  -33.3527 O   0  0  0  0  0  0  0  0  0  0  0  0
   -8.7610    6.1968  -30.7134 O   0  0  0  0  0  0  0  0  0  0  0  0
   -7.9716    3.0616  -32.2194 C   0  0  0  0  0  0  0  0  0  0  0  0
   -9.4068    1.3547  -32.7703 O   0  0  0  0  0  0  0  0  0  0  0  0
   -9.4970    2.5651  -32.0307 C   0  0  0  0  0  0  0  0  0  0  0  0
   -7.3352    0.9857  -31.1456 O   0  0  0  0  0  0  0  0  0  0  0  0
   -7.3193    4.3504  -30.1176 O   0  0  0  0  0  0  0  0  0  0  0  0
   -9.1513    6.1813  -27.5142 C   0  0  0  0  0  0  0  0  0  0  0  0
   -8.3272    7.2379  -27.3337 N   0  0  0  0  0  0  0  0  0  0  0  0
  1  8  1  0
  1 10  1  0
  1 19  1  0
  2  5  1  0
  2  8  1  0
  2  9  1  0
  3  4  1  0
  3 11  1  0
  4  8  1  0
  6  7  2  0
  6 14  1  0
  6 17  1  0
  9 14  1  0
  9 18  1  0
 10 13  1  0
 10 18  1  0
 11 19  1  0
 12 14  1  0
 14 16  1  0
 15 16  1  0
 19 20  2  0
M  END
$$$$
