
     RDKit          3D

 13 13  0  0  0  0  0  0  0  0999 V2000
   -7.2288    3.0761  -33.2038 O   0  0  0  0  0  0  0  0  0  0  0  0
   -8.9153    4.7903  -30.8635 C   0  0  0  0  0  0  0  0  0  0  0  0
   -8.8301    5.9198  -31.6199 O   0  0  0  0  0  0  0  0  0  0  0  0
   -8.8685    1.4105  -32.5750 O   0  0  0  0  0  0  0  0  0  0  0  0
   -8.5552    6.4419  -29.0477 O   0  0  0  0  0  0  0  0  0  0  0  0
   -7.0012    1.1437  -31.2080 O   0  0  0  0  0  0  0  0  0  0  0  0
   -6.5056    3.5010  -30.9140 O   0  0  0  0  0  0  0  0  0  0  0  0
   -8.2812    6.1658  -27.7129 C   0  0  0  0  0  0  0  0  0  0  0  0
  -10.7663    4.5356  -29.3658 O   0  0  0  0  0  0  0  0  0  0  0  0
   -7.6474    2.4433  -31.8177 P   0  0  0  0  0  0  0  0  0  0  0  0
   -8.7682    4.6406  -28.0390 C   0  0  0  0  0  0  0  0  0  0  0  0
   -9.3621    5.1311  -29.4204 C   0  0  0  0  0  0  0  0  0  0  0  0
   -8.9861    3.3692  -31.2042 O   0  0  0  0  0  0  0  0  0  0  0  0
  1 10  1  0
  2  3  2  0
  2 12  1  0
  2 13  1  0
  4 10  1  0
  5  8  1  0
  5 12  1  0
  6 10  1  0
  7 10  1  0
  8 11  1  0
  9 12  1  0
 10 13  1  0
 11 12  1  0
M  END
$$$$
