
     RDKit          3D

 12 12  0  0  0  0  0  0  0  0999 V2000
   -9.7196    5.4592  -27.7968 N   0  0  0  0  0  0  0  0  0  0  0  0
   -8.1044    1.4497  -32.3954 O   0  0  0  0  0  0  0  0  0  0  0  0
   -8.4645    4.4689  -29.3313 C   0  0  0  0  0  0  0  0  0  0  0  0
  -10.3399    3.2118  -30.5776 C   0  0  0  0  0  0  0  0  0  0  0  0
   -9.8307    3.9393  -29.4476 C   0  0  0  0  0  0  0  0  0  0  0  0
   -6.0131    2.1447  -32.1673 O   0  0  0  0  0  0  0  0  0  0  0  0
   -7.4215    3.7060  -30.0711 C   0  0  0  0  0  0  0  0  0  0  0  0
   -7.7425    6.4847  -28.2677 O   0  0  0  0  0  0  0  0  0  0  0  0
   -7.7096    3.6516  -31.6313 C   0  0  0  0  0  0  0  0  0  0  0  0
   -7.2336    2.2897  -32.1474 C   0  0  0  0  0  0  0  0  0  0  0  0
   -8.5814    5.5768  -28.4011 C   0  0  0  0  0  0  0  0  0  0  0  0
  -10.5670    4.5208  -28.5494 N   0  0  0  0  0  0  0  0  0  0  0  0
  1 11  1  0
  1 12  1  0
  2 10  2  0
  3  5  1  0
  3  7  1  0
  3 11  1  0
  4  5  1  0
  5 12  1  0
  6 10  1  0
  7  9  1  0
  8 11  2  0
  9 10  1  0
M  END
$$$$
