
     RDKit          3D

 27 30  0  0  0  0  0  0  0  0999 V2000
   -8.7239    5.9732  -28.1787 C   0  0  0  0  0  0  0  0  0  0  0  0
   -7.3454    2.5494  -32.3709 P   0  0  0  0  0  0  0  0  0  0  0  0
   -8.3478    1.4852  -32.4167 O   0  0  0  0  0  0  0  0  0  0  0  0
  -14.0105   -0.3937  -32.0248 C   0  0  0  0  0  0  0  0  0  0  0  0
   -8.3267    5.0879  -29.2245 C   0  0  0  0  0  0  0  0  0  0  0  0
  -13.6052    2.5638  -32.2849 C   0  0  0  0  0  0  0  0  0  0  0  0
   -8.0141    6.9056  -27.4746 C   0  0  0  0  0  0  0  0  0  0  0  0
  -12.8024    1.7008  -31.4296 C   0  0  0  0  0  0  0  0  0  0  0  0
   -9.9414    6.4277  -26.4953 N   0  0  0  0  0  0  0  0  0  0  0  0
  -11.8174    2.6984  -30.7036 C   0  0  0  0  0  0  0  0  0  0  0  0
  -10.1441    3.6402  -29.0231 C   0  0  0  0  0  0  0  0  0  0  0  0
  -14.4687    0.3855  -33.0658 O   0  0  0  0  0  0  0  0  0  0  0  0
  -13.5810    0.5361  -30.9487 C   0  0  0  0  0  0  0  0  0  0  0  0
   -6.7516    3.9908  -30.5610 C   0  0  0  0  0  0  0  0  0  0  0  0
  -10.3378    4.2043  -27.6502 C   0  0  0  0  0  0  0  0  0  0  0  0
  -13.3278    0.0458  -29.7451 O   0  0  0  0  0  0  0  0  0  0  0  0
   -5.9889    2.1294  -32.1772 O   0  0  0  0  0  0  0  0  0  0  0  0
   -8.8234    7.2987  -26.4856 C   0  0  0  0  0  0  0  0  0  0  0  0
  -14.5091    1.7796  -33.1132 C   0  0  0  0  0  0  0  0  0  0  0  0
   -9.8194    5.4987  -27.4087 C   0  0  0  0  0  0  0  0  0  0  0  0
   -7.1942    4.1995  -29.1634 C   0  0  0  0  0  0  0  0  0  0  0  0
  -10.4305    2.8212  -31.4094 C   0  0  0  0  0  0  0  0  0  0  0  0
   -9.3747    5.9707  -31.0201 O   0  0  0  0  0  0  0  0  0  0  0  0
   -9.1999    3.6922  -31.2464 C   0  0  0  0  0  0  0  0  0  0  0  0
   -7.2897    3.5205  -33.4365 O   0  0  0  0  0  0  0  0  0  0  0  0
   -9.4972    4.6612  -30.0701 C   0  0  0  0  0  0  0  0  0  0  0  0
   -7.7864    3.4143  -31.3004 C   0  0  0  0  0  0  0  0  0  0  0  0
  1  5  1  0
  1  7  1  0
  1 20  1  0
  2  3  1  0
  2 17  1  0
  2 25  1  0
  2 27  1  0
  4 12  1  0
  4 13  1  0
  5 21  1  0
  5 26  1  0
  6  8  1  0
  6 19  1  0
  7 18  1  0
  8 10  1  0
  8 13  1  0
  9 18  1  0
  9 20  1  0
 10 22  1  0
 11 15  1  0
 11 26  1  0
 12 19  1  0
 13 16  1  0
 14 21  1  0
 14 27  1  0
 15 20  1  0
 22 24  1  0
 23 26  1  0
 24 26  1  0
 24 27  1  0
M  END
$$$$
