
     RDKit          3D

  9  8  0  0  0  0  0  0  0  0999 V2000
   -7.6651    3.4094  -30.4507 C   0  0  0  0  0  0  0  0  0  0  0  0
   -8.4761    4.6964  -30.3651 C   0  0  0  0  0  0  0  0  0  0  0  0
   -7.4775    3.5721  -33.2575 O   0  0  0  0  0  0  0  0  0  0  0  0
   -8.1641    6.3737  -27.8330 S   0  0  0  0  0  0  0  0  0  0  0  0
   -7.4719    2.6106  -32.0035 P   0  0  0  0  0  0  0  0  0  0  0  0
   -8.5988    5.2244  -28.8896 C   0  0  0  0  0  0  0  0  0  0  0  0
   -9.0787    4.0171  -28.0227 C   0  0  0  0  0  0  0  0  0  0  0  0
   -6.0101    2.1157  -32.0888 O   0  0  0  0  0  0  0  0  0  0  0  0
   -8.4463    1.4637  -32.2200 O   0  0  0  0  0  0  0  0  0  0  0  0
  1  2  1  0
  1  5  1  0
  2  6  1  0
  3  5  1  0
  4  6  2  0
  5  8  1  0
  5  9  1  0
  6  7  1  0
M  END
$$$$
