
     RDKit          3D

 29 30  0  0  0  0  0  0  0  0999 V2000
   32.1282   33.5554  101.9712 O   0  0  0  0  0  0  0  0  0  0  0  0
   23.8259   36.0666   99.9250 C   0  0  0  0  0  0  0  0  0  0  0  0
   25.9354   34.3819  105.0347 C   0  0  0  0  0  0  0  0  0  0  0  0
   29.4295   34.4176  103.9095 N   0  0  0  0  0  0  0  0  0  0  0  0
   21.6858   32.2875  106.3586 O   0  0  0  0  0  0  0  0  0  0  0  0
   31.3639   33.1224  103.0992 C   0  0  0  0  0  0  0  0  0  0  0  0
   29.8344   33.3026  103.0719 C   0  0  0  0  0  0  0  0  0  0  0  0
   25.9303   36.6698  101.0288 C   0  0  0  0  0  0  0  0  0  0  0  0
   23.7822   36.2775   99.8078 N   0  0  0  0  0  0  0  0  0  0  0  0
   32.6687   33.8779  105.3594 C   0  0  0  0  0  0  0  0  0  0  0  0
   29.9966   36.8444  103.5909 O   0  0  0  0  0  0  0  0  0  0  0  0
   24.9610   33.9228  106.0520 C   0  0  0  0  0  0  0  0  0  0  0  0
   24.1997   33.9960  108.3286 C   0  0  0  0  0  0  0  0  0  0  0  0
   22.7571   32.9793  106.6124 C   0  0  0  0  0  0  0  0  0  0  0  0
   27.2948   34.6881  105.1013 N   0  0  0  0  0  0  0  0  0  0  0  0
   31.8353   33.7388  104.3625 C   0  0  0  0  0  0  0  0  0  0  0  0
   24.0104   34.3406  109.4479 O   0  0  0  0  0  0  0  0  0  0  0  0
   23.7762   33.2297  105.6921 C   0  0  0  0  0  0  0  0  0  0  0  0
   30.2499   35.6285  103.8751 C   0  0  0  0  0  0  0  0  0  0  0  0
   28.1028   34.7894  104.0901 C   0  0  0  0  0  0  0  0  0  0  0  0
   23.8480   36.1271   99.8025 C   0  0  0  0  0  0  0  0  0  0  0  0
   31.2697   35.0649  104.5546 N   0  0  0  0  0  0  0  0  0  0  0  0
   25.4698   35.7126  101.6224 C   0  0  0  0  0  0  0  0  0  0  0  0
   27.5552   35.4899  103.0709 C   0  0  0  0  0  0  0  0  0  0  0  0
   22.8129   33.7013  107.8123 C   0  0  0  0  0  0  0  0  0  0  0  0
   26.2456   35.3077  102.8668 C   0  0  0  0  0  0  0  0  0  0  0  0
   25.1493   35.1952  101.4617 C   0  0  0  0  0  0  0  0  0  0  0  0
   25.2473   34.1051  107.4421 C   0  0  0  0  0  0  0  0  0  0  0  0
   25.4301   34.7542  103.8783 C   0  0  0  0  0  0  0  0  0  0  0  0
  1  6  1  0
  2 21  1  0
  3 12  1  0
  3 15  1  0
  3 29  2  0
  4  7  1  0
  4 19  1  0
  4 20  1  0
  5 14  1  0
  6  7  1  0
  6 16  1  0
  8 23  1  0
  9 21  1  0
 10 16  2  0
 11 19  2  0
 12 18  1  0
 12 28  1  0
 13 17  2  0
 13 25  1  0
 13 28  1  0
 14 18  2  0
 14 25  1  0
 15 20  2  0
 16 22  1  0
 19 22  1  0
 20 24  1  0
 23 26  1  0
 23 27  2  0
 24 26  1  0
 26 29  1  0
M  END
$$$$
