
     RDKit          3D

 31 30  0  0  0  0  0  0  0  0999 V2000
   31.2123   33.4505  103.0063 C   0  0  0  0  0  0  0  0  0  0  0  0
   26.9104   34.5411  104.7995 C   0  0  0  0  0  0  0  0  0  0  0  0
   24.4956   33.3984  103.9437 C   0  0  0  0  0  0  0  0  0  0  0  0
   23.8375   36.4236   97.9668 N   0  0  0  0  0  0  0  0  0  0  0  0
   24.9376   36.7346  100.7817 C   0  0  0  0  0  0  0  0  0  0  0  0
   23.4922   32.5045  105.7681 N   0  0  0  0  0  0  0  0  0  0  0  0
   22.7993   33.9540  107.6223 C   0  0  0  0  0  0  0  0  0  0  0  0
   26.8271   36.5058  102.1617 C   0  0  0  0  0  0  0  0  0  0  0  0
   27.3470   35.5862  103.0914 N   0  0  0  0  0  0  0  0  0  0  0  0
   24.2262   33.9415  107.8838 C   0  0  0  0  0  0  0  0  0  0  0  0
   24.5595   33.3509  105.4093 C   0  0  0  0  0  0  0  0  0  0  0  0
   32.1568   33.7298  102.1327 O   0  0  0  0  0  0  0  0  0  0  0  0
   25.1995   34.2550  103.1819 C   0  0  0  0  0  0  0  0  0  0  0  0
   30.0548   32.7436  102.7332 O   0  0  0  0  0  0  0  0  0  0  0  0
   21.1669   32.5528  106.3221 N   0  0  0  0  0  0  0  0  0  0  0  0
   30.2055   36.6496  103.6231 O   0  0  0  0  0  0  0  0  0  0  0  0
   32.6895   33.9731  105.1496 O   0  0  0  0  0  0  0  0  0  0  0  0
   26.3392   34.7177  103.6801 C   0  0  0  0  0  0  0  0  0  0  0  0
   26.1695   36.3199  100.9760 C   0  0  0  0  0  0  0  0  0  0  0  0
   26.4749   33.0520  107.9903 O   0  0  0  0  0  0  0  0  0  0  0  0
   28.2291   34.5700  104.9053 C   0  0  0  0  0  0  0  0  0  0  0  0
   29.9094   35.8308  103.6683 C   0  0  0  0  0  0  0  0  0  0  0  0
   25.2233   33.7613  106.8118 C   0  0  0  0  0  0  0  0  0  0  0  0
   30.9113   34.6855  103.9372 C   0  0  0  0  0  0  0  0  0  0  0  0
   31.4117   34.3220  105.3496 C   0  0  0  0  0  0  0  0  0  0  0  0
   24.6187   34.2043  109.0907 O   0  0  0  0  0  0  0  0  0  0  0  0
   20.4385   32.6907  107.5395 O   0  0  0  0  0  0  0  0  0  0  0  0
   22.3390   33.2387  106.3065 C   0  0  0  0  0  0  0  0  0  0  0  0
   24.0328   35.7705   99.9195 C   0  0  0  0  0  0  0  0  0  0  0  0
   28.5283   35.3949  103.8682 C   0  0  0  0  0  0  0  0  0  0  0  0
   20.8795   31.7077  105.1491 C   0  0  0  0  0  0  0  0  0  0  0  0
  1 12  2  0
  1 14  1  0
  1 24  1  0
  2 18  1  0
  2 21  1  0
  3 11  2  3
  3 13  1  0
  5 19  1  0
  5 29  1  0
  6 11  1  0
  6 28  1  0
  7 10  1  0
  7 28  1  0
  8  9  1  0
  8 19  1  0
  9 18  1  0
  9 30  1  0
 10 23  1  0
 10 26  1  0
 11 23  1  0
 13 18  2  3
 15 27  1  0
 15 28  1  0
 15 31  1  0
 16 22  2  0
 17 25  1  0
 21 30  1  0
 22 24  1  0
 22 30  1  0
 24 25  1  0
M  END
$$$$
