
     RDKit          3D

 32 33  0  0  0  0  0  0  0  0999 V2000
   29.9519   34.8206  104.0070 C   0  0  0  0  0  0  0  0  0  0  0  0
   24.4533   35.7410  100.4857 N   0  0  0  0  0  0  0  0  0  0  0  0
   23.3438   36.9964   98.8668 N   0  0  0  0  0  0  0  0  0  0  0  0
   29.9516   36.2668  103.7895 C   0  0  0  0  0  0  0  0  0  0  0  0
   32.1276   33.8481  104.8996 C   0  0  0  0  0  0  0  0  0  0  0  0
   26.3986   34.5903  106.2180 N   0  0  0  0  0  0  0  0  0  0  0  0
   22.5974   32.4638  105.9142 C   0  0  0  0  0  0  0  0  0  0  0  0
   22.4050   30.8872  104.1767 C   0  0  0  0  0  0  0  0  0  0  0  0
   24.1998   32.3031  104.0967 C   0  0  0  0  0  0  0  0  0  0  0  0
   25.4332   34.1528  106.9543 C   0  0  0  0  0  0  0  0  0  0  0  0
   23.7450   35.9563   99.8310 C   0  0  0  0  0  0  0  0  0  0  0  0
   25.3828   36.3246  101.1083 C   0  0  0  0  0  0  0  0  0  0  0  0
   32.0128   33.6694  101.8628 O   0  0  0  0  0  0  0  0  0  0  0  0
   25.4855   34.2563  108.3602 O   0  0  0  0  0  0  0  0  0  0  0  0
   29.4290   37.4678  103.5968 O   0  0  0  0  0  0  0  0  0  0  0  0
   25.0154   34.7523  102.9645 C   0  0  0  0  0  0  0  0  0  0  0  0
   28.7728   34.2575  104.3130 C   0  0  0  0  0  0  0  0  0  0  0  0
   25.6436   37.4721  101.0485 O   0  0  0  0  0  0  0  0  0  0  0  0
   31.8862   34.4258  105.9107 F   0  0  0  0  0  0  0  0  0  0  0  0
   31.0775   33.8993  103.8929 C   0  0  0  0  0  0  0  0  0  0  0  0
   33.3154   33.5636  104.4595 O   0  0  0  0  0  0  0  0  0  0  0  0
   21.9208   31.4700  105.3446 C   0  0  0  0  0  0  0  0  0  0  0  0
   25.8524   35.5428  102.2972 C   0  0  0  0  0  0  0  0  0  0  0  0
   23.7855   32.8717  105.3722 C   0  0  0  0  0  0  0  0  0  0  0  0
   25.3689   34.4222  104.1399 C   0  0  0  0  0  0  0  0  0  0  0  0
   26.4265   34.6976  104.9154 C   0  0  0  0  0  0  0  0  0  0  0  0
   31.0772   33.2370  102.7212 C   0  0  0  0  0  0  0  0  0  0  0  0
   24.3965   33.6778  106.2567 N   0  0  0  0  0  0  0  0  0  0  0  0
   29.9294   32.5697  102.5469 F   0  0  0  0  0  0  0  0  0  0  0  0
   27.1102   35.7556  102.8862 N   0  0  0  0  0  0  0  0  0  0  0  0
   23.5134   31.3446  103.6984 C   0  0  0  0  0  0  0  0  0  0  0  0
   27.5089   35.0223  104.0285 C   0  0  0  0  0  0  0  0  0  0  0  0
  1  4  2  0
  1 17  1  0
  1 20  1  0
  2 11  1  0
  2 12  1  0
  3 11  1  0
  4 15  2  0
  5 19  1  0
  5 20  1  0
  5 21  1  0
  6 10  1  0
  6 26  2  3
  7 22  1  0
  7 24  2  0
  8 22  2  0
  8 31  1  0
  9 24  1  0
  9 31  2  0
 10 14  2  0
 10 28  1  0
 12 18  2  0
 12 23  1  0
 13 27  1  0
 16 23  1  0
 16 25  2  0
 17 32  1  0
 20 27  1  0
 23 30  2  0
 24 28  1  0
 25 26  1  0
 26 32  1  0
 27 29  1  0
 30 32  1  0
M  END
$$$$
