
     RDKit          3D

 26 27  0  0  0  0  0  0  0  0999 V2000
   24.0917   33.9670  106.6099 C   0  0  0  0  0  0  0  0  0  0  0  0
   27.9811   35.5058  103.9887 C   0  0  0  0  0  0  0  0  0  0  0  0
   24.4939   36.0755   98.3766 O   0  0  0  0  0  0  0  0  0  0  0  0
   24.7203   34.5998  105.3637 C   0  0  0  0  0  0  0  0  0  0  0  0
   31.4954   34.3090  104.2041 C   0  0  0  0  0  0  0  0  0  0  0  0
   25.3214   37.0178  100.8242 C   0  0  0  0  0  0  0  0  0  0  0  0
   27.1106   34.5336  104.6812 C   0  0  0  0  0  0  0  0  0  0  0  0
   26.0098   33.2562  107.7247 O   0  0  0  0  0  0  0  0  0  0  0  0
   26.0554   36.5630  101.5071 C   0  0  0  0  0  0  0  0  0  0  0  0
   25.4809   34.9212  103.0640 C   0  0  0  0  0  0  0  0  0  0  0  0
   26.1186   34.9690  105.7124 C   0  0  0  0  0  0  0  0  0  0  0  0
   30.3382   36.8506  103.5419 O   0  0  0  0  0  0  0  0  0  0  0  0
   25.0255   33.9017  107.7889 C   0  0  0  0  0  0  0  0  0  0  0  0
   29.1663   34.7651  103.7935 N   0  0  0  0  0  0  0  0  0  0  0  0
   24.4867   36.2140  100.2830 N   0  0  0  0  0  0  0  0  0  0  0  0
   30.4637   35.4037  103.9825 C   0  0  0  0  0  0  0  0  0  0  0  0
   32.1687   33.7263  101.9257 O   0  0  0  0  0  0  0  0  0  0  0  0
   26.8641   34.9990  103.4669 C   0  0  0  0  0  0  0  0  0  0  0  0
   24.7734   34.2873  108.9731 O   0  0  0  0  0  0  0  0  0  0  0  0
   25.2888   35.4593  101.8976 N   0  0  0  0  0  0  0  0  0  0  0  0
   32.3338   34.2497  105.2610 O   0  0  0  0  0  0  0  0  0  0  0  0
   31.5363   33.2520  103.1500 C   0  0  0  0  0  0  0  0  0  0  0  0
   30.1984   32.7967  102.7160 C   0  0  0  0  0  0  0  0  0  0  0  0
   29.0771   33.4867  103.2030 C   0  0  0  0  0  0  0  0  0  0  0  0
   24.6788   34.0973  103.9436 C   0  0  0  0  0  0  0  0  0  0  0  0
   23.8059   36.0260  100.0079 N   0  0  0  0  0  0  0  0  0  0  0  0
  1  4  1  0
  1 13  1  0
  2 14  1  0
  2 18  1  0
  3 26  1  0
  4 11  1  0
  4 25  1  0
  5 16  1  0
  5 21  1  0
  5 22  1  0
  6  9  1  0
  6 15  1  0
  7 11  1  0
  7 18  1  0
  8 13  2  0
  9 20  1  0
 10 18  1  0
 10 20  1  0
 10 25  1  0
 12 16  2  0
 13 19  1  0
 14 16  1  0
 14 24  1  0
 15 26  1  0
 17 22  1  0
 22 23  1  0
 23 24  1  0
M  END
$$$$
