
     RDKit          3D

 25 26  0  0  0  0  0  0  0  0999 V2000
   25.8219   34.7060  103.6149 C   0  0  0  0  0  0  0  0  0  0  0  0
   28.3172   33.8954  103.5067 C   0  0  0  0  0  0  0  0  0  0  0  0
   25.6125   37.3753  101.0322 O   0  0  0  0  0  0  0  0  0  0  0  0
   25.8501   34.3719  108.0712 O   0  0  0  0  0  0  0  0  0  0  0  0
   28.0504   35.1642  104.2614 C   0  0  0  0  0  0  0  0  0  0  0  0
   25.9467   35.3618  102.4065 C   0  0  0  0  0  0  0  0  0  0  0  0
   30.7815   34.3426  103.8790 C   0  0  0  0  0  0  0  0  0  0  0  0
   24.9715   36.3638  100.5357 C   0  0  0  0  0  0  0  0  0  0  0  0
   26.0233   34.7952  105.9173 N   0  0  0  0  0  0  0  0  0  0  0  0
   29.8510   32.5699  102.5639 C   0  0  0  0  0  0  0  0  0  0  0  0
   24.8935   35.5694  101.4985 C   0  0  0  0  0  0  0  0  0  0  0  0
   32.1098   33.7205  101.9735 O   0  0  0  0  0  0  0  0  0  0  0  0
   26.6578   35.2870  104.7475 C   0  0  0  0  0  0  0  0  0  0  0  0
   31.8970   33.4591  103.3533 C   0  0  0  0  0  0  0  0  0  0  0  0
   29.6399   33.5890  103.2917 C   0  0  0  0  0  0  0  0  0  0  0  0
   24.8188   34.1514  105.6137 C   0  0  0  0  0  0  0  0  0  0  0  0
   28.9805   36.2754  103.8420 C   0  0  0  0  0  0  0  0  0  0  0  0
   23.3825   35.7101   99.5392 O   0  0  0  0  0  0  0  0  0  0  0  0
   30.3356   35.8721  103.7675 C   0  0  0  0  0  0  0  0  0  0  0  0
   23.6767   36.4131   99.6349 C   0  0  0  0  0  0  0  0  0  0  0  0
   24.6137   33.9170  108.0191 C   0  0  0  0  0  0  0  0  0  0  0  0
   23.3573   35.2530   99.6229 C   0  0  0  0  0  0  0  0  0  0  0  0
   31.2583   34.3027  105.3724 C   0  0  0  0  0  0  0  0  0  0  0  0
   24.6935   33.9282  104.0912 C   0  0  0  0  0  0  0  0  0  0  0  0
   24.1417   33.4276  106.6795 C   0  0  0  0  0  0  0  0  0  0  0  0
  1  6  1  0
  1 13  1  0
  1 24  1  0
  2  5  1  0
  2 15  1  0
  3  8  1  0
  4 21  1  0
  5 13  1  0
  5 17  1  0
  6 11  2  3
  7 14  1  0
  7 15  1  0
  7 19  1  0
  7 23  1  0
  8 11  1  0
  8 20  1  0
  9 13  1  0
  9 16  1  0
 10 15  2  0
 12 14  1  0
 16 24  1  0
 16 25  1  0
 17 19  1  0
 18 20  1  0
 18 22  1  0
 21 25  1  0
M  END
$$$$
