
     RDKit          3D

 18 18  0  0  0  0  0  0  0  0999 V2000
   27.8930   35.6915  103.4850 C   0  0  0  0  0  0  0  0  0  0  0  0
   24.2815   33.6097  105.8767 O   0  0  0  0  0  0  0  0  0  0  0  0
   25.2704   34.2412  105.8794 C   0  0  0  0  0  0  0  0  0  0  0  0
   32.1194   33.6722  102.0501 O   0  0  0  0  0  0  0  0  0  0  0  0
   30.0271   34.7370  104.6444 C   0  0  0  0  0  0  0  0  0  0  0  0
   24.2599   36.0335  100.1153 C   0  0  0  0  0  0  0  0  0  0  0  0
   25.9293   34.3496  107.0394 O   0  0  0  0  0  0  0  0  0  0  0  0
   30.0604   32.7895  102.7208 C   0  0  0  0  0  0  0  0  0  0  0  0
   25.8938   34.6960  104.4886 C   0  0  0  0  0  0  0  0  0  0  0  0
   29.3866   35.9545  103.7677 C   0  0  0  0  0  0  0  0  0  0  0  0
   25.8619   35.5319  102.0555 C   0  0  0  0  0  0  0  0  0  0  0  0
   31.3471   33.3848  103.0283 C   0  0  0  0  0  0  0  0  0  0  0  0
   25.1921   34.9509  103.2215 C   0  0  0  0  0  0  0  0  0  0  0  0
   24.9974   36.7360  101.2830 C   0  0  0  0  0  0  0  0  0  0  0  0
   27.0928   36.0376  102.3589 C   0  0  0  0  0  0  0  0  0  0  0  0
   29.9389   36.8813  103.6214 O   0  0  0  0  0  0  0  0  0  0  0  0
   27.2515   34.9418  104.4770 C   0  0  0  0  0  0  0  0  0  0  0  0
   31.4261   34.2231  104.3057 C   0  0  0  0  0  0  0  0  0  0  0  0
  1 10  1  0
  1 15  2  0
  1 17  1  0
  2  3  2  0
  3  7  1  0
  3  9  1  0
  4 12  2  0
  5 10  1  0
  5 18  1  0
  6 14  1  0
  8 12  1  0
  9 13  2  0
  9 17  1  0
 10 16  2  0
 11 13  1  0
 11 14  1  0
 11 15  1  0
 12 18  1  0
M  END
$$$$
