
     RDKit          3D

 24 24  0  0  0  0  0  0  0  0999 V2000
   28.2362   34.0385  103.7995 C   0  0  0  0  0  0  0  0  0  0  0  0
   25.4314   33.4604  103.6973 C   0  0  0  0  0  0  0  0  0  0  0  0
   28.2114   36.1514  103.5074 C   0  0  0  0  0  0  0  0  0  0  0  0
   32.1403   33.6216  104.2841 C   0  0  0  0  0  0  0  0  0  0  0  0
   24.6207   36.3275  100.3643 C   0  0  0  0  0  0  0  0  0  0  0  0
   31.6184   33.7011  102.9981 C   0  0  0  0  0  0  0  0  0  0  0  0
   30.3681   34.7208  104.3897 N   0  0  0  0  0  0  0  0  0  0  0  0
   25.0847   35.7276  102.6405 C   0  0  0  0  0  0  0  0  0  0  0  0
   29.5559   34.3166  103.9377 C   0  0  0  0  0  0  0  0  0  0  0  0
   25.9132   34.8510  103.3016 C   0  0  0  0  0  0  0  0  0  0  0  0
   24.8891   34.5890  105.7970 C   0  0  0  0  0  0  0  0  0  0  0  0
   24.7980   35.4819  101.3712 C   0  0  0  0  0  0  0  0  0  0  0  0
   24.5993   33.4414  104.8712 C   0  0  0  0  0  0  0  0  0  0  0  0
   31.5535   34.3838  105.3202 C   0  0  0  0  0  0  0  0  0  0  0  0
   27.3794   35.1439  103.6212 N   0  0  0  0  0  0  0  0  0  0  0  0
   25.9960   33.2873  107.7442 O   0  0  0  0  0  0  0  0  0  0  0  0
   32.1965   33.7694  101.9264 O   0  0  0  0  0  0  0  0  0  0  0  0
   24.5640   35.9021  105.0402 O   0  0  0  0  0  0  0  0  0  0  0  0
   25.3075   37.5059  100.9715 C   0  0  0  0  0  0  0  0  0  0  0  0
   23.4432   36.1521   99.5021 C   0  0  0  0  0  0  0  0  0  0  0  0
   25.0101   33.9506  107.3967 C   0  0  0  0  0  0  0  0  0  0  0  0
   29.3061   36.9567  103.3766 N   0  0  0  0  0  0  0  0  0  0  0  0
   30.4106   34.4596  103.4733 N   0  0  0  0  0  0  0  0  0  0  0  0
   24.1620   34.3882  108.2095 O   0  0  0  0  0  0  0  0  0  0  0  0
  1  9  1  0
  1 15  1  0
  2 10  1  0
  2 13  1  0
  3 15  1  0
  3 22  1  0
  4  6  1  0
  4 14  1  0
  5 12  1  0
  5 19  1  0
  5 20  1  0
  6 17  2  0
  6 23  1  0
  7 14  1  0
  7 23  1  0
  8 10  1  0
  8 12  1  0
  9 23  1  0
 10 15  1  0
 11 13  1  0
 11 18  1  0
 11 21  1  0
 16 21  2  0
 21 24  1  0
M  END
$$$$
