
     RDKit          3D

 25 28  0  0  0  0  0  0  0  0999 V2000
   23.6901   33.6416  106.8455 C   0  0  0  0  0  0  0  0  0  0  0  0
   24.3448   33.2749  104.1829 S   0  0  0  0  0  0  0  0  0  0  0  0
   25.6552   34.2714  104.5102 C   0  0  0  0  0  0  0  0  0  0  0  0
   24.5754   36.1003  100.4634 C   0  0  0  0  0  0  0  0  0  0  0  0
   25.4430   36.9379  100.6894 C   0  0  0  0  0  0  0  0  0  0  0  0
   26.3375   36.6932  101.6799 O   0  0  0  0  0  0  0  0  0  0  0  0
   28.6967   36.2274  103.5917 C   0  0  0  0  0  0  0  0  0  0  0  0
   24.9539   35.1609  101.5065 C   0  0  0  0  0  0  0  0  0  0  0  0
   31.2627   35.0434  104.4562 C   0  0  0  0  0  0  0  0  0  0  0  0
   31.8359   33.7694  104.3384 C   0  0  0  0  0  0  0  0  0  0  0  0
   25.7991   34.7032  105.9317 C   0  0  0  0  0  0  0  0  0  0  0  0
   30.3720   32.9679  102.7765 C   0  0  0  0  0  0  0  0  0  0  0  0
   31.7952   33.0313  103.0531 C   0  0  0  0  0  0  0  0  0  0  0  0
   29.7410   36.6508  103.4809 O   0  0  0  0  0  0  0  0  0  0  0  0
   25.7482   35.4303  102.2224 C   0  0  0  0  0  0  0  0  0  0  0  0
   25.1479   33.9468  107.0363 C   0  0  0  0  0  0  0  0  0  0  0  0
   23.4676   36.0860   99.6388 F   0  0  0  0  0  0  0  0  0  0  0  0
   26.2566   35.0995  103.5428 C   0  0  0  0  0  0  0  0  0  0  0  0
   27.7283   35.2306  103.8353 C   0  0  0  0  0  0  0  0  0  0  0  0
   29.5451   33.9169  103.3646 C   0  0  0  0  0  0  0  0  0  0  0  0
   28.2775   33.9368  103.8108 C   0  0  0  0  0  0  0  0  0  0  0  0
   25.8423   33.2185  107.7581 O   0  0  0  0  0  0  0  0  0  0  0  0
   23.3692   32.8890  105.5523 C   0  0  0  0  0  0  0  0  0  0  0  0
   32.8498   33.8617  105.3547 N   0  0  0  0  0  0  0  0  0  0  0  0
   30.2124   35.2503  103.7113 C   0  0  0  0  0  0  0  0  0  0  0  0
  1 16  1  0
  1 23  1  0
  2  3  1  0
  2 23  1  0
  3 11  1  0
  3 18  1  0
  4  5  1  0
  4  8  2  0
  4 17  1  0
  5  6  1  0
  6 15  1  0
  7 14  1  0
  7 19  1  0
  8 15  1  0
  9 10  1  0
  9 25  1  0
 10 13  1  0
 10 24  1  0
 11 16  1  0
 12 13  1  0
 12 20  1  0
 14 25  1  0
 15 18  1  0
 16 22  2  0
 18 19  1  0
 19 21  1  0
 20 21  1  0
 20 25  1  0
M  END
$$$$
