
     RDKit          3D

 28 27  0  0  0  0  0  0  0  0999 V2000
   31.3164   33.3745  102.6624 C   0  0  0  0  0  0  0  0  0  0  0  0
   25.1869   35.2098  102.2261 C   0  0  0  0  0  0  0  0  0  0  0  0
   27.8474   35.4775  103.6187 C   0  0  0  0  0  0  0  0  0  0  0  0
   29.3035   35.7459  103.8922 C   0  0  0  0  0  0  0  0  0  0  0  0
   24.1959   32.4947  104.2751 O   0  0  0  0  0  0  0  0  0  0  0  0
   31.5081   34.8967  104.8179 C   0  0  0  0  0  0  0  0  0  0  0  0
   27.3669   35.9528  102.4808 C   0  0  0  0  0  0  0  0  0  0  0  0
   24.3964   36.2098  100.2848 C   0  0  0  0  0  0  0  0  0  0  0  0
   24.9612   34.5495  103.2211 C   0  0  0  0  0  0  0  0  0  0  0  0
   22.4297   30.4449  106.1387 O   0  0  0  0  0  0  0  0  0  0  0  0
   30.0689   34.6435  104.5986 C   0  0  0  0  0  0  0  0  0  0  0  0
   25.6318   34.3248  104.2764 C   0  0  0  0  0  0  0  0  0  0  0  0
   30.1640   32.9241  102.5877 O   0  0  0  0  0  0  0  0  0  0  0  0
   26.2676   35.5811  101.4758 C   0  0  0  0  0  0  0  0  0  0  0  0
   25.5790   37.0650  100.9416 C   0  0  0  0  0  0  0  0  0  0  0  0
   22.4178   31.5607  105.5552 C   0  0  0  0  0  0  0  0  0  0  0  0
   32.1830   33.8977  104.9945 C   0  0  0  0  0  0  0  0  0  0  0  0
   23.5424   36.1480   99.5499 N   0  0  0  0  0  0  0  0  0  0  0  0
   21.8565   32.6005  105.8454 O   0  0  0  0  0  0  0  0  0  0  0  0
   29.8549   36.8777  103.5808 O   0  0  0  0  0  0  0  0  0  0  0  0
   23.3883   31.5989  104.2463 C   0  0  0  0  0  0  0  0  0  0  0  0
   24.7101   33.4608  105.3018 C   0  0  0  0  0  0  0  0  0  0  0  0
   25.7677   34.5670  107.3704 O   0  0  0  0  0  0  0  0  0  0  0  0
   29.6103   34.3165  105.6282 F   0  0  0  0  0  0  0  0  0  0  0  0
   32.1038   33.6805  101.7940 O   0  0  0  0  0  0  0  0  0  0  0  0
   24.6893   34.0718  106.6459 C   0  0  0  0  0  0  0  0  0  0  0  0
   26.9996   34.7375  104.4568 C   0  0  0  0  0  0  0  0  0  0  0  0
   32.0308   33.0673  103.4457 F   0  0  0  0  0  0  0  0  0  0  0  0
  1 13  2  0
  1 25  1  0
  1 28  1  0
  2  9  1  0
  2 14  1  0
  3  4  1  0
  3  7  1  0
  3 27  2  0
  4 11  1  0
  4 20  1  0
  5 21  1  0
  5 22  1  0
  6 11  1  0
  6 17  1  0
  7 14  1  0
  8 15  1  0
  8 18  2  0
  9 12  2  0
 10 16  2  0
 11 24  1  0
 12 22  1  0
 12 27  1  0
 14 15  1  0
 16 19  1  0
 16 21  1  0
 22 26  1  0
 23 26  1  0
M  END
$$$$
