
     RDKit          3D

 44 47  0  0  0  0  0  0  0  0999 V2000
  -20.7311   -6.7216    4.6650 C   0  0  0  0  0  0  0  0  0  0  0  0
  -22.4379   -6.9706    0.8226 O   0  0  0  0  0  0  0  0  0  0  0  0
  -17.1579   -5.1908    4.2838 C   0  0  0  0  0  0  0  0  0  0  0  0
  -18.6209   -2.9540    4.0711 F   0  0  0  0  0  0  0  0  0  0  0  0
  -22.8977   -7.8374    1.6217 C   0  0  0  0  0  0  0  0  0  0  0  0
  -21.8379   -7.5467    3.9905 C   0  0  0  0  0  0  0  0  0  0  0  0
  -22.1984   -8.4435    6.2396 C   0  0  0  0  0  0  0  0  0  0  0  0
  -18.5262   -5.7098    6.3596 C   0  0  0  0  0  0  0  0  0  0  0  0
  -12.0381   -6.5217    2.6963 N   0  0  0  0  0  0  0  0  0  0  0  0
  -12.2318   -3.1742   -2.0326 C   0  0  0  0  0  0  0  0  0  0  0  0
  -13.5004   -6.5961    5.6512 N   0  0  0  0  0  0  0  0  0  0  0  0
  -21.0604   -8.6100    3.1522 C   0  0  0  0  0  0  0  0  0  0  0  0
  -21.2799   -2.7542    4.5194 C   0  0  0  0  0  0  0  0  0  0  0  0
  -12.2615   -2.3516   -0.8806 O   0  0  0  0  0  0  0  0  0  0  0  0
  -21.3316   -5.3708    5.2050 C   0  0  0  0  0  0  0  0  0  0  0  0
  -19.2661   -4.0912    4.4026 C   0  0  0  0  0  0  0  0  0  0  0  0
  -21.0957   -4.4560    2.9124 O   0  0  0  0  0  0  0  0  0  0  0  0
  -24.0492   -7.7559    2.1474 O   0  0  0  0  0  0  0  0  0  0  0  0
   -9.7228   -8.1566    3.2921 O   0  0  0  0  0  0  0  0  0  0  0  0
  -11.8428   -6.8982    3.8022 C   0  0  0  0  0  0  0  0  0  0  0  0
  -19.9516   -7.6712    2.5212 C   0  0  0  0  0  0  0  0  0  0  0  0
  -11.8061   -1.3693   -3.6079 C   0  0  0  0  0  0  0  0  0  0  0  0
  -22.6267   -6.0577    6.2441 O   0  0  0  0  0  0  0  0  0  0  0  0
  -19.4616   -6.8399    3.7119 C   0  0  0  0  0  0  0  0  0  0  0  0
  -18.4082   -5.0235    5.0383 C   0  0  0  0  0  0  0  0  0  0  0  0
  -14.5770   -5.9457    3.8468 N   0  0  0  0  0  0  0  0  0  0  0  0
  -20.7720   -4.1676    4.2592 C   0  0  0  0  0  0  0  0  0  0  0  0
  -18.1260   -7.3372    4.0621 C   0  0  0  0  0  0  0  0  0  0  0  0
  -21.0374   -4.1171    7.2942 C   0  0  0  0  0  0  0  0  0  0  0  0
  -10.9437   -0.8963   -2.5204 C   0  0  0  0  0  0  0  0  0  0  0  0
  -11.3362   -1.2049   -1.1001 C   0  0  0  0  0  0  0  0  0  0  0  0
  -15.9516   -6.9191    5.3083 C   0  0  0  0  0  0  0  0  0  0  0  0
  -14.6768   -6.3774    4.9406 C   0  0  0  0  0  0  0  0  0  0  0  0
  -22.0385   -4.7382    6.3409 C   0  0  0  0  0  0  0  0  0  0  0  0
  -21.9888   -9.0559    2.0191 C   0  0  0  0  0  0  0  0  0  0  0  0
  -12.2314   -6.5474    5.1299 C   0  0  0  0  0  0  0  0  0  0  0  0
  -10.3542   -7.3143    3.8800 C   0  0  0  0  0  0  0  0  0  0  0  0
  -16.9464   -6.5781    4.3393 C   0  0  0  0  0  0  0  0  0  0  0  0
  -22.8233   -8.2139    4.8672 C   0  0  0  0  0  0  0  0  0  0  0  0
  -12.5890   -2.4496   -3.2891 O   0  0  0  0  0  0  0  0  0  0  0  0
  -22.0484   -7.1447    6.9860 C   0  0  0  0  0  0  0  0  0  0  0  0
  -23.1939   -3.7570    6.1741 C   0  0  0  0  0  0  0  0  0  0  0  0
  -10.1631   -7.0013    4.9066 N   0  0  0  0  0  0  0  0  0  0  0  0
  -11.2282   -6.5416    5.5932 N   0  0  0  0  0  0  0  0  0  0  0  0
  1  6  1  0
  1 15  1  0
  1 24  1  0
  2  5  2  0
  3 25  1  0
  3 38  1  0
  4 16  1  0
  5 18  1  0
  5 35  1  0
  6 12  1  0
  6 39  1  0
  7 39  1  0
  7 41  1  0
  8 25  1  0
  9 20  2  0
 10 14  1  0
 10 40  1  0
 11 33  1  0
 11 36  2  3
 12 21  1  0
 12 35  1  0
 13 27  1  0
 14 31  1  0
 15 27  1  0
 15 34  1  0
 16 25  1  0
 16 27  1  0
 17 27  1  0
 19 37  2  0
 20 36  1  0
 20 37  1  0
 21 24  1  0
 22 30  1  0
 22 40  1  0
 23 34  1  0
 23 41  1  0
 24 28  1  0
 26 33  2  0
 28 38  1  0
 29 34  1  0
 30 31  1  0
 32 33  1  0
 32 38  1  0
 34 42  1  0
 36 44  1  0
 37 43  1  0
 43 44  2  0
M  END
$$$$
