
     RDKit          3D

 15 15  0  0  0  0  0  0  0  0999 V2000
  -13.0673   -6.6596    5.8450 N   0  0  0  0  0  0  0  0  0  0  0  0
  -10.6738   -7.0136    3.6954 N   0  0  0  0  0  0  0  0  0  0  0  0
  -19.0319   -4.2059    4.3476 C   0  0  0  0  0  0  0  0  0  0  0  0
  -19.3244   -8.0537    3.9480 C   0  0  0  0  0  0  0  0  0  0  0  0
  -12.9382   -6.6040    3.9484 N   0  0  0  0  0  0  0  0  0  0  0  0
  -18.2606   -5.8599    6.1625 C   0  0  0  0  0  0  0  0  0  0  0  0
  -18.6222   -5.6990    4.6179 C   0  0  0  0  0  0  0  0  0  0  0  0
  -16.2137   -6.5358    4.4368 C   0  0  0  0  0  0  0  0  0  0  0  0
  -11.7441   -6.8484    4.3468 C   0  0  0  0  0  0  0  0  0  0  0  0
  -17.3911   -6.0304    3.7817 C   0  0  0  0  0  0  0  0  0  0  0  0
  -13.8244   -6.3814    4.8937 C   0  0  0  0  0  0  0  0  0  0  0  0
  -19.7463   -6.6540    4.2889 C   0  0  0  0  0  0  0  0  0  0  0  0
  -20.9670   -6.2238    4.3206 O   0  0  0  0  0  0  0  0  0  0  0  0
  -15.0733   -5.8126    4.6905 C   0  0  0  0  0  0  0  0  0  0  0  0
  -11.8235   -6.9668    5.6754 N   0  0  0  0  0  0  0  0  0  0  0  0
  1 11  2  0
  1 15  1  0
  2  9  2  0
  3  7  1  0
  4 12  1  0
  5  9  1  0
  5 11  1  0
  6  7  1  0
  7 10  1  0
  7 12  1  0
  8 10  1  0
  8 14  1  0
  9 15  1  0
 11 14  1  0
 12 13  1  0
M  END
$$$$
