
     RDKit          3D

 17 18  0  0  0  0  0  0  0  0999 V2000
  -12.2537   -7.1655    6.3273 O   0  0  0  0  0  0  0  0  0  0  0  0
  -20.5330   -5.1445    4.0349 C   0  0  0  0  0  0  0  0  0  0  0  0
  -20.2213   -5.9101    2.9146 C   0  0  0  0  0  0  0  0  0  0  0  0
  -11.7109   -6.8467    3.1014 O   0  0  0  0  0  0  0  0  0  0  0  0
  -10.2320   -6.9875    4.8149 N   0  0  0  0  0  0  0  0  0  0  0  0
  -14.9631   -6.5051    5.4542 C   0  0  0  0  0  0  0  0  0  0  0  0
  -18.4380   -5.7223    5.0224 C   0  0  0  0  0  0  0  0  0  0  0  0
  -18.9843   -6.5338    2.8110 C   0  0  0  0  0  0  0  0  0  0  0  0
  -18.0485   -6.3699    3.8301 C   0  0  0  0  0  0  0  0  0  0  0  0
  -17.2995   -5.7837    5.9197 C   0  0  0  0  0  0  0  0  0  0  0  0
  -21.9112   -4.1424    4.0548 Cl  0  0  0  0  0  0  0  0  0  0  0  0
  -16.7781   -6.6697    3.9075 N   0  0  0  0  0  0  0  0  0  0  0  0
  -11.3737   -6.7461    4.2523 C   0  0  0  0  0  0  0  0  0  0  0  0
  -16.2944   -6.3571    5.0840 N   0  0  0  0  0  0  0  0  0  0  0  0
  -12.5362   -6.4035    5.2584 C   0  0  0  0  0  0  0  0  0  0  0  0
  -19.6628   -5.1474    5.1365 C   0  0  0  0  0  0  0  0  0  0  0  0
  -13.9029   -6.4512    4.5993 C   0  0  0  0  0  0  0  0  0  0  0  0
  1 15  1  0
  2  3  1  0
  2 11  1  0
  2 16  2  0
  3  8  2  0
  4 13  2  0
  5 13  1  0
  6 14  1  0
  6 17  2  3
  7  9  2  0
  7 10  1  0
  7 16  1  0
  8  9  1  0
  9 12  1  0
 10 14  1  0
 12 14  1  0
 13 15  1  0
 15 17  1  0
M  END
$$$$
