
     RDKit          3D

 28 29  0  0  0  0  0  0  0  0999 V2000
  -11.2999   -6.8897    4.0621 C   0  0  0  0  0  0  0  0  0  0  0  0
  -18.6851   -6.2572    5.7139 C   0  0  0  0  0  0  0  0  0  0  0  0
  -11.7528   -1.6648   -0.6992 C   0  0  0  0  0  0  0  0  0  0  0  0
  -22.4031   -5.7083    5.0421 O   0  0  0  0  0  0  0  0  0  0  0  0
  -12.0443   -7.2257    6.2583 O   0  0  0  0  0  0  0  0  0  0  0  0
  -19.5135   -5.8302    6.7975 C   0  0  0  0  0  0  0  0  0  0  0  0
  -12.2674   -3.0380   -0.3680 C   0  0  0  0  0  0  0  0  0  0  0  0
  -11.8310   -1.3100   -1.9935 O   0  0  0  0  0  0  0  0  0  0  0  0
  -19.1370   -4.4184    4.1290 C   0  0  0  0  0  0  0  0  0  0  0  0
  -19.0726   -5.9188    4.2956 C   0  0  0  0  0  0  0  0  0  0  0  0
  -11.8236   -2.1576   -3.0369 C   0  0  0  0  0  0  0  0  0  0  0  0
  -20.7992   -6.5107    6.5866 C   0  0  0  0  0  0  0  0  0  0  0  0
  -12.3691   -3.5222   -2.7487 C   0  0  0  0  0  0  0  0  0  0  0  0
  -11.7093   -7.7605    3.4590 O   0  0  0  0  0  0  0  0  0  0  0  0
  -16.8564   -6.1537    4.3671 C   0  0  0  0  0  0  0  0  0  0  0  0
  -21.2859   -6.4565    5.1949 C   0  0  0  0  0  0  0  0  0  0  0  0
  -12.0715   -6.4812    5.2370 C   0  0  0  0  0  0  0  0  0  0  0  0
  -17.9057   -6.4149    3.5580 N   0  0  0  0  0  0  0  0  0  0  0  0
  -14.8556   -7.3354    5.9697 O   0  0  0  0  0  0  0  0  0  0  0  0
  -20.1379   -7.4739    2.9362 C   0  0  0  0  0  0  0  0  0  0  0  0
  -17.2958   -6.0273    5.7714 C   0  0  0  0  0  0  0  0  0  0  0  0
  -10.3246   -6.5115    3.7752 O   0  0  0  0  0  0  0  0  0  0  0  0
  -21.1407   -6.2845    2.7948 C   0  0  0  0  0  0  0  0  0  0  0  0
  -13.3259   -5.7801    5.3736 C   0  0  0  0  0  0  0  0  0  0  0  0
  -20.4293   -6.5690    3.9586 C   0  0  0  0  0  0  0  0  0  0  0  0
  -14.6072   -6.2805    5.2278 C   0  0  0  0  0  0  0  0  0  0  0  0
  -15.4870   -5.6815    4.2041 C   0  0  0  0  0  0  0  0  0  0  0  0
  -12.4578   -3.8857   -1.4364 C   0  0  0  0  0  0  0  0  0  0  0  0
  1 14  2  0
  1 17  1  0
  1 22  1  0
  2  6  1  0
  2 10  1  0
  2 21  1  0
  3  7  2  0
  3  8  1  0
  4 16  1  0
  5 17  2  0
  6 12  1  0
  7 28  1  0
  8 11  1  0
  9 10  1  0
 10 18  1  0
 10 25  1  0
 11 13  1  0
 12 16  1  0
 13 28  2  0
 15 18  1  0
 15 21  1  0
 15 27  1  0
 16 25  1  0
 17 24  1  0
 19 26  1  0
 20 25  1  0
 23 25  1  0
 24 26  1  0
 26 27  1  0
M  END
$$$$
