
     RDKit          3D

 13 13  0  0  0  0  0  0  0  0999 V2000
  -13.2984   -6.5909    4.3330 O   0  0  0  0  0  0  0  0  0  0  0  0
  -17.4706   -6.4142    3.5016 C   0  0  0  0  0  0  0  0  0  0  0  0
  -14.5016   -6.0381    4.0597 C   0  0  0  0  0  0  0  0  0  0  0  0
  -19.7048   -7.1935    3.6349 C   0  0  0  0  0  0  0  0  0  0  0  0
  -17.4570   -6.3755    4.8840 C   0  0  0  0  0  0  0  0  0  0  0  0
  -12.1103   -7.0442    6.1473 O   0  0  0  0  0  0  0  0  0  0  0  0
  -12.0999   -6.6328    4.9191 C   0  0  0  0  0  0  0  0  0  0  0  0
  -15.2308   -5.2394    5.0057 C   0  0  0  0  0  0  0  0  0  0  0  0
  -19.6861   -7.0953    5.0075 C   0  0  0  0  0  0  0  0  0  0  0  0
  -11.0156   -7.0417    3.9749 C   0  0  0  0  0  0  0  0  0  0  0  0
  -16.2582   -6.0383    5.6258 C   0  0  0  0  0  0  0  0  0  0  0  0
  -18.5771   -6.6477    5.6352 C   0  0  0  0  0  0  0  0  0  0  0  0
  -18.6187   -6.8400    2.8681 C   0  0  0  0  0  0  0  0  0  0  0  0
  1  3  1  0
  1  7  1  0
  2  5  1  0
  2 13  2  0
  3  8  1  0
  4  9  2  0
  4 13  1  0
  5 11  1  0
  5 12  2  0
  6  7  2  0
  7 10  1  0
  8 11  1  0
  9 12  1  0
M  END
$$$$
