
     RDKit          3D

 12 12  0  0  0  0  0  0  0  0999 V2000
  -18.0008   -5.0300    5.1973 C   0  0  0  0  0  0  0  0  0  0  0  0
  -18.6601   -7.4936    4.2626 C   0  0  0  0  0  0  0  0  0  0  0  0
  -17.4178   -6.9785    4.0793 C   0  0  0  0  0  0  0  0  0  0  0  0
  -12.3827   -6.6590    4.9138 C   0  0  0  0  0  0  0  0  0  0  0  0
  -19.5796   -6.7542    4.9575 C   0  0  0  0  0  0  0  0  0  0  0  0
  -17.0647   -5.7685    4.5427 C   0  0  0  0  0  0  0  0  0  0  0  0
  -13.6616   -6.4904    4.4588 N   0  0  0  0  0  0  0  0  0  0  0  0
  -12.1371   -7.0569    6.0883 O   0  0  0  0  0  0  0  0  0  0  0  0
  -11.4393   -6.7074    3.8909 N   0  0  0  0  0  0  0  0  0  0  0  0
  -19.2424   -5.4882    5.4336 C   0  0  0  0  0  0  0  0  0  0  0  0
  -14.7457   -6.2605    5.1472 C   0  0  0  0  0  0  0  0  0  0  0  0
  -15.6303   -5.3000    4.4148 C   0  0  0  0  0  0  0  0  0  0  0  0
  1  6  1  0
  1 10  2  0
  2  3  1  0
  2  5  2  0
  3  6  2  0
  4  7  1  0
  4  8  2  0
  4  9  1  0
  5 10  1  0
  6 12  1  0
  7 11  1  0
 11 12  1  0
M  END
$$$$
