
     RDKit          3D

 12 12  0  0  0  0  0  0  0  0999 V2000
  -18.3866   -5.8461    6.1597 C   0  0  0  0  0  0  0  0  0  0  0  0
  -14.3148   -6.1509    4.2235 N   0  0  0  0  0  0  0  0  0  0  0  0
  -17.4242   -6.4502    5.1877 C   0  0  0  0  0  0  0  0  0  0  0  0
  -19.8082   -7.4090    4.7787 C   0  0  0  0  0  0  0  0  0  0  0  0
  -19.0514   -6.9698    3.4703 C   0  0  0  0  0  0  0  0  0  0  0  0
  -12.0412   -6.7517    3.9869 O   0  0  0  0  0  0  0  0  0  0  0  0
  -13.0968   -6.5458    4.8357 C   0  0  0  0  0  0  0  0  0  0  0  0
  -16.0895   -6.2818    5.5274 C   0  0  0  0  0  0  0  0  0  0  0  0
  -17.6611   -6.4982    3.7326 C   0  0  0  0  0  0  0  0  0  0  0  0
  -12.9562   -6.8809    6.0001 O   0  0  0  0  0  0  0  0  0  0  0  0
  -15.3640   -5.4546    4.5460 C   0  0  0  0  0  0  0  0  0  0  0  0
  -19.8058   -6.3749    5.9389 C   0  0  0  0  0  0  0  0  0  0  0  0
  1  3  1  0
  1 12  1  0
  2  7  1  0
  2 11  1  0
  3  8  1  0
  3  9  1  0
  4  5  1  0
  4 12  1  0
  5  9  1  0
  6  7  2  0
  7 10  1  0
  8 11  1  0
M  END
$$$$
