
     RDKit          3D

 10  9  0  0  0  0  0  0  0  0999 V2000
  -18.2499   -4.7774    4.3331 O   0  0  0  0  0  0  0  0  0  0  0  0
  -12.2994   -7.0660    6.1388 O   0  0  0  0  0  0  0  0  0  0  0  0
  -11.6000   -7.0166    3.9588 O   0  0  0  0  0  0  0  0  0  0  0  0
  -18.5019   -7.2132    4.4073 C   0  0  0  0  0  0  0  0  0  0  0  0
  -13.7805   -6.3347    4.3917 C   0  0  0  0  0  0  0  0  0  0  0  0
  -16.0968   -6.6743    5.1170 C   0  0  0  0  0  0  0  0  0  0  0  0
  -17.9574   -5.9793    3.8186 C   0  0  0  0  0  0  0  0  0  0  0  0
  -16.4793   -6.0995    3.8036 O   0  0  0  0  0  0  0  0  0  0  0  0
  -14.7274   -6.1330    5.3781 C   0  0  0  0  0  0  0  0  0  0  0  0
  -12.4180   -6.6546    4.9269 C   0  0  0  0  0  0  0  0  0  0  0  0
  1  7  1  0
  2 10  2  0
  3 10  1  0
  4  7  1  0
  5  9  1  0
  5 10  1  0
  6  8  1  0
  6  9  1  0
  7  8  1  0
M  END
$$$$
