
     RDKit          3D

 30 33  0  0  0  0  0  0  0  0999 V2000
   30.2986   43.1012   16.8888 C   0  0  0  0  0  0  0  0  0  0  0  0
   29.6669   41.1142   18.6114 C   0  0  0  0  0  0  0  0  0  0  0  0
   32.0307   40.3810   18.1911 C   0  0  0  0  0  0  0  0  0  0  0  0
   36.9680   43.5001   15.2449 C   0  0  0  0  0  0  0  0  0  0  0  0
   31.6508   39.1160   18.6735 C   0  0  0  0  0  0  0  0  0  0  0  0
   36.3957   43.5537   17.5927 C   0  0  0  0  0  0  0  0  0  0  0  0
   31.1904   42.8944   18.0626 C   0  0  0  0  0  0  0  0  0  0  0  0
   37.0204   43.4951   20.6992 C   0  0  0  0  0  0  0  0  0  0  0  0
   37.4946   44.7960   15.3527 C   0  0  0  0  0  0  0  0  0  0  0  0
   36.9888   44.7934   17.7245 C   0  0  0  0  0  0  0  0  0  0  0  0
   37.3950   42.8192   21.9535 C   0  0  0  0  0  0  0  0  0  0  0  0
   36.7935   41.5559   21.9578 C   0  0  0  0  0  0  0  0  0  0  0  0
   36.2049   42.6452   19.9529 C   0  0  0  0  0  0  0  0  0  0  0  0
   37.9096   45.3966   14.1555 O   0  0  0  0  0  0  0  0  0  0  0  0
   28.7875   42.1515   18.4910 N   0  0  0  0  0  0  0  0  0  0  0  0
   36.4448   42.9080   16.3761 C   0  0  0  0  0  0  0  0  0  0  0  0
   35.6655   42.8918   18.7036 C   0  0  0  0  0  0  0  0  0  0  0  0
   38.0653   46.7526   13.9287 C   0  0  0  0  0  0  0  0  0  0  0  0
   36.0205   41.4243   20.6922 C   0  0  0  0  0  0  0  0  0  0  0  0
   37.5294   45.4101   16.5986 C   0  0  0  0  0  0  0  0  0  0  0  0
   39.4720   47.1671   14.1890 O   0  0  0  0  0  0  0  0  0  0  0  0
   28.9498   43.0397   17.4266 C   0  0  0  0  0  0  0  0  0  0  0  0
   39.9842   47.3633   15.5434 C   0  0  0  0  0  0  0  0  0  0  0  0
   30.4342   38.9456   19.3011 C   0  0  0  0  0  0  0  0  0  0  0  0
   31.0205   41.4244   18.3177 C   0  0  0  0  0  0  0  0  0  0  0  0
   32.5361   43.4807   17.9499 C   0  0  0  0  0  0  0  0  0  0  0  0
   29.4666   39.9197   19.2134 N   0  0  0  0  0  0  0  0  0  0  0  0
   32.8176   44.6789   18.0907 O   0  0  0  0  0  0  0  0  0  0  0  0
   34.7232   41.8634   18.1495 C   0  0  0  0  0  0  0  0  0  0  0  0
   33.5154   42.5256   17.5677 O   0  0  0  0  0  0  0  0  0  0  0  0
  1  7  1  0
  1 22  1  0
  2 15  1  0
  2 25  1  0
  2 27  2  0
  3  5  1  0
  3 25  2  0
  4  9  1  0
  4 16  2  0
  5 24  2  0
  6 10  2  0
  6 16  1  0
  6 17  1  0
  7 25  1  0
  7 26  1  0
  8 11  1  0
  8 13  1  0
  9 14  1  0
  9 20  2  0
 10 20  1  0
 11 12  1  0
 12 19  1  0
 13 17  1  0
 13 19  1  0
 14 18  1  0
 15 22  1  0
 17 29  1  0
 18 21  1  0
 21 23  1  0
 24 27  1  0
 26 28  2  0
 26 30  1  0
 29 30  1  0
M  END
$$$$
