
     RDKit          3D

 35 39  0  0  0  0  0  0  0  0999 V2000
   35.5191   41.0937   19.3389 C   0  0  0  0  0  0  0  0  0  0  0  0
   36.2742   43.4665   18.8317 C   0  0  0  0  0  0  0  0  0  0  0  0
   36.6820   44.8470   17.9566 C   0  0  0  0  0  0  0  0  0  0  0  0
   38.9862   45.7532   17.1945 C   0  0  0  0  0  0  0  0  0  0  0  0
   30.8760   43.6618   16.8927 C   0  0  0  0  0  0  0  0  0  0  0  0
   38.1648   45.8657   14.5310 C   0  0  0  0  0  0  0  0  0  0  0  0
   33.0062   42.5721   17.2417 C   0  0  0  0  0  0  0  0  0  0  0  0
   26.1803   39.6149   20.3626 O   0  0  0  0  0  0  0  0  0  0  0  0
   29.4349   40.2539   17.9066 C   0  0  0  0  0  0  0  0  0  0  0  0
   25.8630   41.7298   20.9478 O   0  0  0  0  0  0  0  0  0  0  0  0
   36.0561   45.1448   16.5187 C   0  0  0  0  0  0  0  0  0  0  0  0
   34.2898   41.8018   18.6481 C   0  0  0  0  0  0  0  0  0  0  0  0
   41.4003   45.8616   19.1920 C   0  0  0  0  0  0  0  0  0  0  0  0
   33.7399   43.9036   17.5328 C   0  0  0  0  0  0  0  0  0  0  0  0
   36.9272   45.9670   15.4792 C   0  0  0  0  0  0  0  0  0  0  0  0
   38.1857   44.8615   17.9999 C   0  0  0  0  0  0  0  0  0  0  0  0
   31.4311   44.8495   14.7736 C   0  0  0  0  0  0  0  0  0  0  0  0
   32.3622   45.9613   14.3889 C   0  0  0  0  0  0  0  0  0  0  0  0
   31.6323   44.6848   16.2535 C   0  0  0  0  0  0  0  0  0  0  0  0
   31.6479   40.9913   18.5967 C   0  0  0  0  0  0  0  0  0  0  0  0
   40.2244   46.2828   17.0636 C   0  0  0  0  0  0  0  0  0  0  0  0
   33.1571   40.6776   18.7664 C   0  0  0  0  0  0  0  0  0  0  0  0
   27.7406   42.3252   18.4319 C   0  0  0  0  0  0  0  0  0  0  0  0
   36.3715   42.2593   19.9071 C   0  0  0  0  0  0  0  0  0  0  0  0
   30.2592   41.5998   18.0669 C   0  0  0  0  0  0  0  0  0  0  0  0
   31.5178   42.4775   17.6390 C   0  0  0  0  0  0  0  0  0  0  0  0
   37.6092   45.7052   13.1133 C   0  0  0  0  0  0  0  0  0  0  0  0
   27.6413   41.2236   19.4573 C   0  0  0  0  0  0  0  0  0  0  0  0
   41.4752   46.3242   17.7033 C   0  0  0  0  0  0  0  0  0  0  0  0
   33.0686   44.9499   16.6311 C   0  0  0  0  0  0  0  0  0  0  0  0
   34.9025   43.1687   18.2488 C   0  0  0  0  0  0  0  0  0  0  0  0
   29.1286   42.6216   18.0676 C   0  0  0  0  0  0  0  0  0  0  0  0
   28.6438   40.1105   19.2273 C   0  0  0  0  0  0  0  0  0  0  0  0
   26.4586   40.8316   20.2999 C   0  0  0  0  0  0  0  0  0  0  0  0
   29.4757   43.6907   17.1756 C   0  0  0  0  0  0  0  0  0  0  0  0
  1 12  1  0
  1 24  1  0
  2  3  1  0
  2 24  1  0
  2 31  1  0
  3 11  1  0
  3 16  1  0
  4 16  1  0
  4 21  2  3
  5 19  1  0
  5 26  2  0
  5 35  1  0
  6 15  1  0
  6 27  1  0
  7 14  1  0
  7 26  1  0
  8 34  2  0
  9 25  1  0
  9 33  1  0
 10 34  1  0
 11 15  1  0
 12 22  1  0
 12 31  2  0
 13 29  1  0
 14 30  1  0
 14 31  1  0
 17 18  1  0
 17 19  1  0
 19 30  1  0
 20 22  1  0
 20 25  1  0
 21 29  1  0
 23 28  1  0
 23 32  1  0
 25 26  1  0
 25 32  1  0
 28 33  1  0
 28 34  1  0
 32 35  1  0
M  END
$$$$
