
     RDKit          3D

 31 33  0  0  0  0  0  0  0  0999 V2000
   30.4578   40.3248   18.3960 C   0  0  0  0  0  0  0  0  0  0  0  0
   36.1953   45.8529   15.6215 C   0  0  0  0  0  0  0  0  0  0  0  0
   35.0546   45.1028   16.5228 C   0  0  0  0  0  0  0  0  0  0  0  0
   34.3956   42.2005   17.6710 C   0  0  0  0  0  0  0  0  0  0  0  0
   32.8592   41.5975   18.0268 C   0  0  0  0  0  0  0  0  0  0  0  0
   34.6566   43.7455   17.3872 C   0  0  0  0  0  0  0  0  0  0  0  0
   28.6016   41.9285   18.9254 C   0  0  0  0  0  0  0  0  0  0  0  0
   29.0915   40.5279   18.9260 C   0  0  0  0  0  0  0  0  0  0  0  0
   30.5659   44.9028   15.7917 C   0  0  0  0  0  0  0  0  0  0  0  0
   31.2504   41.5551   18.0371 C   0  0  0  0  0  0  0  0  0  0  0  0
   31.1048   43.9426   16.8060 C   0  0  0  0  0  0  0  0  0  0  0  0
   38.5653   44.5954   18.8386 C   0  0  0  0  0  0  0  0  0  0  0  0
   35.1669   44.1326   18.8130 O   0  0  0  0  0  0  0  0  0  0  0  0
   35.9676   43.0242   19.4208 C   0  0  0  0  0  0  0  0  0  0  0  0
   37.3142   43.6597   15.5725 O   0  0  0  0  0  0  0  0  0  0  0  0
   38.3420   43.7365   20.1094 C   0  0  0  0  0  0  0  0  0  0  0  0
   30.9318   44.6420   14.3755 C   0  0  0  0  0  0  0  0  0  0  0  0
   30.6294   46.1541   16.1066 O   0  0  0  0  0  0  0  0  0  0  0  0
   32.6555   43.8241   16.5212 C   0  0  0  0  0  0  0  0  0  0  0  0
   30.8941   38.8475   18.3169 C   0  0  0  0  0  0  0  0  0  0  0  0
   35.6290   41.7855   18.6221 C   0  0  0  0  0  0  0  0  0  0  0  0
   40.5635   45.7376   17.9534 C   0  0  0  0  0  0  0  0  0  0  0  0
   39.1253   45.4016   17.6565 C   0  0  0  0  0  0  0  0  0  0  0  0
   38.6124   45.8061   16.3218 C   0  0  0  0  0  0  0  0  0  0  0  0
   36.8902   43.3535   20.5207 C   0  0  0  0  0  0  0  0  0  0  0  0
   28.4865   39.6153   19.9615 C   0  0  0  0  0  0  0  0  0  0  0  0
   33.3703   40.1800   18.2099 N   0  0  0  0  0  0  0  0  0  0  0  0
   39.0389   44.2086   21.3978 C   0  0  0  0  0  0  0  0  0  0  0  0
   30.4645   42.6550   17.4028 C   0  0  0  0  0  0  0  0  0  0  0  0
   29.1875   42.9512   18.0939 C   0  0  0  0  0  0  0  0  0  0  0  0
   37.4911   45.0608   15.6373 C   0  0  0  0  0  0  0  0  0  0  0  0
  1  8  1  0
  1 10  1  0
  1 20  1  0
  2  3  1  0
  2 31  1  0
  3  6  1  0
  4  5  1  0
  4  6  1  0
  4 21  1  0
  5 10  1  0
  5 27  1  0
  6 13  1  0
  7  8  1  0
  7 30  2  0
  8 26  1  0
  9 11  1  0
  9 17  1  0
  9 18  1  0
 10 29  1  0
 11 19  1  0
 11 29  1  0
 12 16  1  0
 12 23  1  0
 13 14  1  0
 14 21  1  0
 14 25  1  0
 15 31  1  0
 16 25  1  0
 16 28  1  0
 22 23  1  0
 23 24  1  0
 24 31  1  0
 29 30  1  0
M  END
$$$$
