
     RDKit          3D

 39 42  0  0  0  0  0  0  0  0999 V2000
   32.1841   44.9773   15.3557 C   0  0  0  0  0  0  0  0  0  0  0  0
   30.1959   40.8473   17.8761 C   0  0  0  0  0  0  0  0  0  0  0  0
   34.2521   40.1231   19.3020 O   0  0  0  0  0  0  0  0  0  0  0  0
   35.3932   42.4979   18.4070 N   0  0  0  0  0  0  0  0  0  0  0  0
   36.2765   43.0449   17.4312 C   0  0  0  0  0  0  0  0  0  0  0  0
   29.7761   42.1413   17.4361 C   0  0  0  0  0  0  0  0  0  0  0  0
   37.6170   45.0645   16.7457 C   0  0  0  0  0  0  0  0  0  0  0  0
   38.0507   47.1659   12.9756 C   0  0  0  0  0  0  0  0  0  0  0  0
   33.4279   43.0591   19.4116 O   0  0  0  0  0  0  0  0  0  0  0  0
   29.3511   39.9531   18.7248 C   0  0  0  0  0  0  0  0  0  0  0  0
   29.7125   38.7599   18.8878 N   0  0  0  0  0  0  0  0  0  0  0  0
   38.1928   43.7737   19.1649 C   0  0  0  0  0  0  0  0  0  0  0  0
   34.1119   44.2699   16.4053 N   0  0  0  0  0  0  0  0  0  0  0  0
   36.4703   44.3663   16.8355 C   0  0  0  0  0  0  0  0  0  0  0  0
   30.6050   43.0562   16.6607 C   0  0  0  0  0  0  0  0  0  0  0  0
   36.4644   46.3816   14.5490 C   0  0  0  0  0  0  0  0  0  0  0  0
   40.2930   45.1154   18.7911 C   0  0  0  0  0  0  0  0  0  0  0  0
   31.9838   43.0364   16.8260 C   0  0  0  0  0  0  0  0  0  0  0  0
   28.9603   42.8387   18.2994 O   0  0  0  0  0  0  0  0  0  0  0  0
   37.7460   46.7114   14.2963 C   0  0  0  0  0  0  0  0  0  0  0  0
   38.8574   46.5823   15.1993 C   0  0  0  0  0  0  0  0  0  0  0  0
   27.0009   43.1761   19.8389 C   0  0  0  0  0  0  0  0  0  0  0  0
   35.4792   45.8162   15.1504 C   0  0  0  0  0  0  0  0  0  0  0  0
   32.7828   44.0653   16.2100 C   0  0  0  0  0  0  0  0  0  0  0  0
   40.1676   44.4845   21.1327 C   0  0  0  0  0  0  0  0  0  0  0  0
   27.5820   43.0054   18.3976 C   0  0  0  0  0  0  0  0  0  0  0  0
   31.6255   40.7640   18.1297 C   0  0  0  0  0  0  0  0  0  0  0  0
   32.4117   41.8951   17.6159 C   0  0  0  0  0  0  0  0  0  0  0  0
   30.0570   43.9923   15.7680 C   0  0  0  0  0  0  0  0  0  0  0  0
   35.2608   44.8628   16.1306 C   0  0  0  0  0  0  0  0  0  0  0  0
   37.1951   43.0603   19.9734 C   0  0  0  0  0  0  0  0  0  0  0  0
   36.0014   42.1781   19.7006 C   0  0  0  0  0  0  0  0  0  0  0  0
   34.1267   40.6019   17.9442 C   0  0  0  0  0  0  0  0  0  0  0  0
   39.3453   44.5055   19.8257 C   0  0  0  0  0  0  0  0  0  0  0  0
   38.6249   45.7995   16.3493 C   0  0  0  0  0  0  0  0  0  0  0  0
   33.8972   42.1818   18.2334 C   0  0  0  0  0  0  0  0  0  0  0  0
   37.4623   43.2770   21.2734 O   0  0  0  0  0  0  0  0  0  0  0  0
   30.8217   44.9440   15.0996 C   0  0  0  0  0  0  0  0  0  0  0  0
   28.3918   40.3436   19.4728 N   0  0  0  0  0  0  0  0  0  0  0  0
  1 24  1  0
  1 38  2  0
  2  6  1  0
  2 10  1  0
  2 27  1  0
  3 33  1  0
  4  5  1  0
  4 32  1  0
  4 36  1  0
  5 14  1  0
  6 15  1  0
  6 19  1  0
  7 14  2  0
  7 35  2  0
  8 20  1  0
  9 36  1  0
 10 11  2  0
 10 39  1  0
 12 31  2  3
 12 34  1  0
 13 24  1  0
 13 30  2  3
 14 30  1  0
 15 18  1  0
 15 29  2  0
 16 20  2  0
 16 23  2  0
 17 34  1  0
 18 24  2  0
 18 28  1  0
 19 26  1  0
 20 21  1  0
 21 35  1  0
 22 26  1  0
 23 30  1  0
 25 34  1  0
 27 28  1  0
 28 36  1  0
 29 38  1  0
 31 32  1  0
 31 37  1  0
 33 36  1  0
M  END
$$$$
