
     RDKit          3D

 20 21  0  0  0  0  0  0  0  0999 V2000
  -19.4706   -6.4887    3.2230 N   0  0  0  0  0  0  0  0  0  0  0  0
  -11.4120   -6.9375    3.8200 C   0  0  0  0  0  0  0  0  0  0  0  0
  -13.7424   -6.3137    4.2711 N   0  0  0  0  0  0  0  0  0  0  0  0
  -23.4212   -5.3545    1.1263 C   0  0  0  0  0  0  0  0  0  0  0  0
  -22.0544   -4.9255    1.5351 C   0  0  0  0  0  0  0  0  0  0  0  0
  -21.7220   -6.9648    3.7542 C   0  0  0  0  0  0  0  0  0  0  0  0
  -12.4542   -6.4373    4.7952 C   0  0  0  0  0  0  0  0  0  0  0  0
  -17.9074   -5.5492    4.7031 C   0  0  0  0  0  0  0  0  0  0  0  0
  -12.1305   -6.4027    5.9944 O   0  0  0  0  0  0  0  0  0  0  0  0
  -10.1490   -7.0167    4.4077 O   0  0  0  0  0  0  0  0  0  0  0  0
  -15.8505   -6.6548    5.2809 C   0  0  0  0  0  0  0  0  0  0  0  0
  -16.7722   -6.3448    4.0710 C   0  0  0  0  0  0  0  0  0  0  0  0
  -21.2050   -7.3776    5.0079 C   0  0  0  0  0  0  0  0  0  0  0  0
  -21.1197   -6.1336    1.5116 C   0  0  0  0  0  0  0  0  0  0  0  0
  -22.9767   -7.1814    2.9484 C   0  0  0  0  0  0  0  0  0  0  0  0
  -20.0691   -6.7012    5.5112 C   0  0  0  0  0  0  0  0  0  0  0  0
  -23.9431   -6.3303    2.1414 C   0  0  0  0  0  0  0  0  0  0  0  0
  -14.7120   -5.6123    5.0623 C   0  0  0  0  0  0  0  0  0  0  0  0
  -19.0920   -6.4620    4.5220 C   0  0  0  0  0  0  0  0  0  0  0  0
  -20.7265   -6.3817    2.9241 C   0  0  0  0  0  0  0  0  0  0  0  0
  1 19  1  0
  1 20  1  0
  2  7  1  0
  2 10  1  0
  3  7  1  0
  3 18  1  0
  4  5  1  0
  4 17  1  0
  5 14  1  0
  6 13  1  0
  6 15  1  0
  6 20  1  0
  7  9  2  0
  8 12  1  0
  8 19  1  0
 11 12  1  0
 11 18  1  0
 13 16  1  0
 14 20  1  0
 15 17  1  0
 16 19  1  0
M  END
$$$$
