
     RDKit          3D

 28 30  0  0  0  0  0  0  0  0999 V2000
  -19.3542   18.0622  -30.1248 C   0  0  0  0  0  0  0  0  0  0  0  0
  -21.7952   16.8489  -29.2461 C   0  0  0  0  0  0  0  0  0  0  0  0
  -20.5758   18.8883  -29.9921 C   0  0  0  0  0  0  0  0  0  0  0  0
  -27.0625   14.5360  -28.1875 N   0  0  0  0  0  0  0  0  0  0  0  0
  -27.0300   12.7086  -29.6252 O   0  0  0  0  0  0  0  0  0  0  0  0
  -26.6396   13.8570  -29.3150 C   0  0  0  0  0  0  0  0  0  0  0  0
  -22.7572   16.0111  -28.5179 N   0  0  0  0  0  0  0  0  0  0  0  0
  -25.6459   14.5695  -30.1211 C   0  0  0  0  0  0  0  0  0  0  0  0
  -18.2209   17.9473  -26.9274 C   0  0  0  0  0  0  0  0  0  0  0  0
  -14.5747   16.1064  -27.2292 C   0  0  0  0  0  0  0  0  0  0  0  0
  -21.7727   18.2636  -29.5211 N   0  0  0  0  0  0  0  0  0  0  0  0
  -19.6306   16.7367  -30.0838 C   0  0  0  0  0  0  0  0  0  0  0  0
  -16.8296   17.8271  -29.1484 C   0  0  0  0  0  0  0  0  0  0  0  0
  -15.8547   15.6223  -26.5625 O   0  0  0  0  0  0  0  0  0  0  0  0
  -17.2280   17.2586  -27.7857 C   0  0  0  0  0  0  0  0  0  0  0  0
  -22.1280   15.8579  -27.1771 C   0  0  0  0  0  0  0  0  0  0  0  0
  -26.2538   15.6873  -27.8220 C   0  0  0  0  0  0  0  0  0  0  0  0
  -14.6210   17.0142  -28.5015 C   0  0  0  0  0  0  0  0  0  0  0  0
  -23.8109   14.9870  -28.5160 C   0  0  0  0  0  0  0  0  0  0  0  0
  -20.6898   16.1497  -29.6087 C   0  0  0  0  0  0  0  0  0  0  0  0
  -16.9849   15.7991  -27.5164 C   0  0  0  0  0  0  0  0  0  0  0  0
  -24.2117   14.4488  -29.7981 C   0  0  0  0  0  0  0  0  0  0  0  0
  -17.3940   17.6226  -31.4664 O   0  0  0  0  0  0  0  0  0  0  0  0
  -15.6972   16.9430  -29.5747 O   0  0  0  0  0  0  0  0  0  0  0  0
  -24.8741   15.2235  -27.4679 C   0  0  0  0  0  0  0  0  0  0  0  0
  -17.8030   18.3671  -30.2370 C   0  0  0  0  0  0  0  0  0  0  0  0
  -20.6195   20.3819  -30.3108 C   0  0  0  0  0  0  0  0  0  0  0  0
  -23.1991   14.6746  -30.6641 O   0  0  0  0  0  0  0  0  0  0  0  0
  1  3  1  0
  1 12  1  0
  1 26  1  0
  2  7  1  0
  2 11  2  0
  2 20  1  0
  3 11  1  0
  3 27  1  0
  4  6  1  0
  4 17  1  0
  5  6  2  0
  6  8  1  0
  7 16  1  0
  7 19  1  0
  8 22  1  0
  9 15  1  0
 10 14  1  0
 10 18  1  0
 12 20  2  0
 13 15  1  0
 13 24  1  0
 13 26  1  0
 14 21  1  0
 15 21  1  0
 17 25  1  0
 18 24  1  0
 19 22  1  0
 19 25  1  0
 22 28  1  0
 23 26  1  0
M  END
$$$$
