
     RDKit          3D

 20 23  0  0  0  0  0  0  0  0999 V2000
  -21.4286   17.2439  -29.3280 C   0  0  0  0  0  0  0  0  0  0  0  0
  -19.4081   15.7402  -27.6353 C   0  0  0  0  0  0  0  0  0  0  0  0
  -15.3323   16.0318  -28.0787 C   0  0  0  0  0  0  0  0  0  0  0  0
  -17.0241   14.8228  -27.8015 C   0  0  0  0  0  0  0  0  0  0  0  0
  -21.5309   17.2771  -30.6656 C   0  0  0  0  0  0  0  0  0  0  0  0
  -15.9688   15.2406  -26.9519 C   0  0  0  0  0  0  0  0  0  0  0  0
  -20.4363   16.4640  -31.0948 O   0  0  0  0  0  0  0  0  0  0  0  0
  -17.9812   15.9304  -28.2288 C   0  0  0  0  0  0  0  0  0  0  0  0
  -18.3222   15.5523  -29.7771 C   0  0  0  0  0  0  0  0  0  0  0  0
  -22.0926   17.4640  -27.1504 C   0  0  0  0  0  0  0  0  0  0  0  0
  -14.0169   16.4135  -27.6333 C   0  0  0  0  0  0  0  0  0  0  0  0
  -22.1981   19.3777  -28.8728 C   0  0  0  0  0  0  0  0  0  0  0  0
  -20.3323   16.4804  -28.7581 C   0  0  0  0  0  0  0  0  0  0  0  0
  -21.7360   16.4896  -28.3510 C   0  0  0  0  0  0  0  0  0  0  0  0
  -20.0995   16.1596  -26.3776 C   0  0  0  0  0  0  0  0  0  0  0  0
  -20.7856   17.5001  -26.3657 C   0  0  0  0  0  0  0  0  0  0  0  0
  -22.8055   18.6699  -27.7343 C   0  0  0  0  0  0  0  0  0  0  0  0
  -19.6522   16.1037  -30.0110 C   0  0  0  0  0  0  0  0  0  0  0  0
  -21.5531   18.4242  -29.8304 C   0  0  0  0  0  0  0  0  0  0  0  0
  -17.6170   17.3710  -28.1278 C   0  0  0  0  0  0  0  0  0  0  0  0
  1  5  1  0
  1 13  1  0
  1 14  1  0
  1 19  1  0
  2  8  1  0
  2 13  1  0
  2 15  1  0
  3  6  1  0
  3 11  1  0
  4  6  1  0
  4  8  1  0
  5  7  1  0
  7 18  1  0
  8  9  1  0
  8 20  1  0
  9 18  1  0
 10 14  1  0
 10 16  1  0
 10 17  1  0
 12 17  1  0
 12 19  1  0
 13 18  2  0
 15 16  1  0
M  END
$$$$
