
     RDKit          3D

 25 28  0  0  0  0  0  0  0  0999 V2000
  -18.9018   16.3128  -31.0294 C   0  0  0  0  0  0  0  0  0  0  0  0
  -13.7069   15.8066  -28.0988 C   0  0  0  0  0  0  0  0  0  0  0  0
  -15.6849   17.2059  -26.7994 C   0  0  0  0  0  0  0  0  0  0  0  0
  -21.5684   17.1725  -30.1333 C   0  0  0  0  0  0  0  0  0  0  0  0
  -20.6847   18.7051  -31.8453 C   0  0  0  0  0  0  0  0  0  0  0  0
  -20.1367   16.0717  -26.7286 C   0  0  0  0  0  0  0  0  0  0  0  0
  -16.0429   15.8921  -27.2550 C   0  0  0  0  0  0  0  0  0  0  0  0
  -20.6920   16.4865  -29.1518 C   0  0  0  0  0  0  0  0  0  0  0  0
  -14.5957   17.9788  -27.3514 C   0  0  0  0  0  0  0  0  0  0  0  0
  -13.7297   17.2033  -28.2286 O   0  0  0  0  0  0  0  0  0  0  0  0
  -17.5047   15.8335  -26.9992 C   0  0  0  0  0  0  0  0  0  0  0  0
  -19.9796   14.2353  -32.9365 O   0  0  0  0  0  0  0  0  0  0  0  0
  -21.5326   15.7234  -26.5778 C   0  0  0  0  0  0  0  0  0  0  0  0
  -19.8104   15.4804  -33.1658 C   0  0  0  0  0  0  0  0  0  0  0  0
  -20.0502   16.3739  -32.0162 C   0  0  0  0  0  0  0  0  0  0  0  0
  -19.3071   16.9242  -25.9178 C   0  0  0  0  0  0  0  0  0  0  0  0
  -21.0848   17.2504  -31.5496 C   0  0  0  0  0  0  0  0  0  0  0  0
  -15.6733   14.4215  -27.1386 C   0  0  0  0  0  0  0  0  0  0  0  0
  -18.3256   15.1722  -27.9612 C   0  0  0  0  0  0  0  0  0  0  0  0
  -19.6394   15.9864  -28.1460 C   0  0  0  0  0  0  0  0  0  0  0  0
  -16.8499   17.8955  -26.3861 O   0  0  0  0  0  0  0  0  0  0  0  0
  -19.3765   16.0297  -34.1983 O   0  0  0  0  0  0  0  0  0  0  0  0
  -19.4809   16.2481  -29.7092 C   0  0  0  0  0  0  0  0  0  0  0  0
  -17.9284   16.9983  -26.3580 C   0  0  0  0  0  0  0  0  0  0  0  0
  -15.0562   15.1818  -28.0845 C   0  0  0  0  0  0  0  0  0  0  0  0
  1 15  1  0
  1 23  1  0
  2 10  1  0
  2 25  1  0
  3  7  1  0
  3  9  1  0
  3 21  1  0
  4  8  1  0
  4 17  1  0
  5 17  1  0
  6 13  1  0
  6 16  1  0
  6 20  1  0
  7 11  1  0
  7 25  1  0
  8 20  1  0
  8 23  2  0
  9 10  1  0
 11 19  1  0
 11 24  1  0
 12 14  2  0
 14 15  1  0
 14 22  1  0
 15 17  1  0
 16 24  1  0
 18 25  1  0
 19 20  1  0
 21 24  1  0
M  END
$$$$
