
     RDKit          3D

 20 22  0  0  0  0  0  0  0  0999 V2000
   -9.9022   -7.0245    4.4933 O   0  0  0  0  0  0  0  0  0  0  0  0
  -23.4256   -7.3579    6.1285 C   0  0  0  0  0  0  0  0  0  0  0  0
  -19.3196   -5.4573    5.0012 C   0  0  0  0  0  0  0  0  0  0  0  0
  -18.0212   -5.0400    4.6664 C   0  0  0  0  0  0  0  0  0  0  0  0
  -21.2284   -6.9333    4.3363 C   0  0  0  0  0  0  0  0  0  0  0  0
  -14.5261   -6.5025    4.9071 S   0  0  0  0  0  0  0  0  0  0  0  0
  -18.7914   -7.5247    3.9847 C   0  0  0  0  0  0  0  0  0  0  0  0
  -10.8370   -6.8575    4.0474 C   0  0  0  0  0  0  0  0  0  0  0  0
  -21.8562   -7.2038    5.7343 C   0  0  0  0  0  0  0  0  0  0  0  0
  -17.6028   -7.1298    4.1064 C   0  0  0  0  0  0  0  0  0  0  0  0
  -17.0317   -6.0360    4.5105 C   0  0  0  0  0  0  0  0  0  0  0  0
  -20.3381   -4.3472    5.0509 C   0  0  0  0  0  0  0  0  0  0  0  0
  -21.7470   -4.6179    5.4605 C   0  0  0  0  0  0  0  0  0  0  0  0
  -19.7705   -6.7431    4.4863 C   0  0  0  0  0  0  0  0  0  0  0  0
  -12.2583   -7.1968    6.2065 O   0  0  0  0  0  0  0  0  0  0  0  0
  -15.6368   -5.5858    4.6082 C   0  0  0  0  0  0  0  0  0  0  0  0
  -23.3902   -5.9594    6.7247 O   0  0  0  0  0  0  0  0  0  0  0  0
  -12.1020   -6.9303    4.1463 C   0  0  0  0  0  0  0  0  0  0  0  0
  -21.9022   -5.7977    6.4696 C   0  0  0  0  0  0  0  0  0  0  0  0
  -12.9669   -6.5380    5.2201 N   0  0  0  0  0  0  0  0  0  0  0  0
  1  8  2  0
  2  9  1  0
  2 17  1  0
  3  4  1  0
  3 12  1  0
  3 14  1  0
  4 11  1  0
  5  9  1  0
  5 14  1  0
  6 16  1  0
  6 20  1  0
  7 10  2  0
  7 14  1  0
  8 18  1  0
  9 19  1  0
 10 11  1  0
 11 16  1  0
 12 13  1  0
 13 19  1  0
 15 20  1  0
 17 19  1  0
 18 20  1  0
M  END
$$$$
