
     RDKit          3D

 28 29  0  0  0  0  0  0  0  0999 V2000
   -9.8031   -7.2350    4.1673 C   0  0  0  0  0  0  0  0  0  0  0  0
  -17.6436   -5.9318    6.2441 C   0  0  0  0  0  0  0  0  0  0  0  0
  -12.0052   -1.9385   -0.6622 C   0  0  0  0  0  0  0  0  0  0  0  0
  -22.0703   -5.3550    5.5207 O   0  0  0  0  0  0  0  0  0  0  0  0
  -12.1844   -7.2126    6.2960 O   0  0  0  0  0  0  0  0  0  0  0  0
  -18.8704   -5.7970    5.5867 C   0  0  0  0  0  0  0  0  0  0  0  0
  -11.7285   -6.5898    3.0267 O   0  0  0  0  0  0  0  0  0  0  0  0
  -11.8102   -1.5845   -2.0069 O   0  0  0  0  0  0  0  0  0  0  0  0
  -18.9356   -4.8315    4.6147 C   0  0  0  0  0  0  0  0  0  0  0  0
  -19.5196   -6.9018    3.3954 C   0  0  0  0  0  0  0  0  0  0  0  0
  -11.4118   -2.8815   -2.5446 C   0  0  0  0  0  0  0  0  0  0  0  0
  -20.0341   -6.4869    6.1214 C   0  0  0  0  0  0  0  0  0  0  0  0
  -12.4990   -3.7587   -1.9231 C   0  0  0  0  0  0  0  0  0  0  0  0
   -9.2976   -7.5079    4.6159 O   0  0  0  0  0  0  0  0  0  0  0  0
  -17.3093   -6.4980    4.0422 C   0  0  0  0  0  0  0  0  0  0  0  0
  -21.1502   -6.2675    5.1297 C   0  0  0  0  0  0  0  0  0  0  0  0
  -11.7877   -6.3785    5.3642 C   0  0  0  0  0  0  0  0  0  0  0  0
  -18.6036   -6.1785    4.2231 N   0  0  0  0  0  0  0  0  0  0  0  0
  -14.7071   -7.3625    6.1342 O   0  0  0  0  0  0  0  0  0  0  0  0
  -19.1903   -7.5225    2.3685 O   0  0  0  0  0  0  0  0  0  0  0  0
  -16.6983   -5.9660    5.1953 C   0  0  0  0  0  0  0  0  0  0  0  0
  -11.3141   -7.0396    4.1311 C   0  0  0  0  0  0  0  0  0  0  0  0
  -21.7287   -6.0076    2.7389 O   0  0  0  0  0  0  0  0  0  0  0  0
  -13.0788   -6.0664    5.4574 C   0  0  0  0  0  0  0  0  0  0  0  0
  -20.8960   -6.3396    3.6789 C   0  0  0  0  0  0  0  0  0  0  0  0
  -14.4037   -6.5646    5.0785 C   0  0  0  0  0  0  0  0  0  0  0  0
  -15.3827   -5.4024    4.9485 C   0  0  0  0  0  0  0  0  0  0  0  0
  -12.4509   -3.2568   -0.5118 O   0  0  0  0  0  0  0  0  0  0  0  0
  1 14  2  0
  1 22  1  0
  2  6  1  0
  2 21  1  0
  3  8  1  0
  3 28  1  0
  4 16  1  0
  5 17  1  0
  6  9  1  0
  6 12  1  0
  6 18  1  0
  7 22  1  0
  8 11  1  0
 10 18  1  0
 10 20  2  0
 10 25  1  0
 11 13  1  0
 12 16  1  0
 13 28  1  0
 15 18  1  0
 15 21  1  0
 16 25  1  0
 17 22  1  0
 17 24  1  0
 19 26  1  0
 21 27  1  0
 23 25  1  0
 24 26  1  0
 26 27  1  0
M  END
$$$$
