
     RDKit          3D

 13 13  0  0  0  0  0  0  0  0999 V2000
  -11.5999   -7.0568    3.4037 O   0  0  0  0  0  0  0  0  0  0  0  0
  -10.6156   -6.8347    4.9791 O   0  0  0  0  0  0  0  0  0  0  0  0
  -17.8981   -6.4594    4.6522 C   0  0  0  0  0  0  0  0  0  0  0  0
  -19.2546   -7.0097    4.6720 C   0  0  0  0  0  0  0  0  0  0  0  0
  -15.8117   -5.2448    4.4172 C   0  0  0  0  0  0  0  0  0  0  0  0
  -17.4604   -5.2223    4.2777 C   0  0  0  0  0  0  0  0  0  0  0  0
  -13.1002   -6.5389    5.1299 C   0  0  0  0  0  0  0  0  0  0  0  0
  -16.7500   -7.0784    4.9749 C   0  0  0  0  0  0  0  0  0  0  0  0
  -20.2326   -6.8792    5.5149 N   0  0  0  0  0  0  0  0  0  0  0  0
  -14.2508   -7.1794    5.1025 N   0  0  0  0  0  0  0  0  0  0  0  0
  -15.5367   -6.4658    4.8241 C   0  0  0  0  0  0  0  0  0  0  0  0
  -11.7815   -6.8838    4.4873 C   0  0  0  0  0  0  0  0  0  0  0  0
  -12.9345   -5.7438    5.8290 O   0  0  0  0  0  0  0  0  0  0  0  0
  1 12  2  0
  2 12  1  0
  3  4  1  0
  3  6  1  0
  3  8  1  0
  4  9  2  0
  5  6  1  0
  5 11  1  0
  7 10  1  0
  7 12  1  0
  7 13  2  0
  8 11  2  0
 10 11  1  0
M  END
$$$$
