
     RDKit          3D

 12 11  0  0  0  0  0  0  0  0999 V2000
  -20.2546   -5.3502    3.4551 C   0  0  0  0  0  0  0  0  0  0  0  0
  -14.4096   -6.4252    4.9755 C   0  0  0  0  0  0  0  0  0  0  0  0
  -17.6769   -5.6658    3.8973 O   0  0  0  0  0  0  0  0  0  0  0  0
  -16.5012   -6.2024    5.6704 O   0  0  0  0  0  0  0  0  0  0  0  0
  -15.6393   -5.8884    4.4038 C   0  0  0  0  0  0  0  0  0  0  0  0
  -21.1143   -5.4168    2.5180 O   0  0  0  0  0  0  0  0  0  0  0  0
  -12.9802   -6.6504    5.1081 C   0  0  0  0  0  0  0  0  0  0  0  0
  -18.9327   -6.1952    3.1916 C   0  0  0  0  0  0  0  0  0  0  0  0
  -17.8523   -6.0890    5.3399 C   0  0  0  0  0  0  0  0  0  0  0  0
  -12.4238   -6.9953    6.1474 O   0  0  0  0  0  0  0  0  0  0  0  0
  -20.4664   -4.9235    4.6454 O   0  0  0  0  0  0  0  0  0  0  0  0
  -12.1286   -6.7642    3.9402 O   0  0  0  0  0  0  0  0  0  0  0  0
  1  6  2  0
  1  8  1  0
  1 11  1  0
  2  5  1  0
  2  7  1  0
  3  8  1  0
  3  9  1  0
  4  5  1  0
  4  9  1  0
  7 10  2  0
  7 12  1  0
M  END
$$$$
