
     RDKit          3D

 14 14  0  0  0  0  0  0  0  0999 V2000
  -12.4421   -6.5600    5.2018 C   0  0  0  0  0  0  0  0  0  0  0  0
  -10.2148   -7.0586    4.6542 O   0  0  0  0  0  0  0  0  0  0  0  0
  -17.4941   -6.6171    3.8005 C   0  0  0  0  0  0  0  0  0  0  0  0
  -11.2741   -6.8037    4.2523 C   0  0  0  0  0  0  0  0  0  0  0  0
  -14.9849   -5.7974    4.4199 C   0  0  0  0  0  0  0  0  0  0  0  0
  -19.4621   -6.8824    5.6297 C   0  0  0  0  0  0  0  0  0  0  0  0
  -18.6548   -7.2772    3.4637 C   0  0  0  0  0  0  0  0  0  0  0  0
  -17.2498   -6.2959    5.0844 C   0  0  0  0  0  0  0  0  0  0  0  0
  -13.8238   -6.5148    4.7858 N   0  0  0  0  0  0  0  0  0  0  0  0
  -18.2589   -6.3147    6.0380 C   0  0  0  0  0  0  0  0  0  0  0  0
  -15.9201   -5.8402    5.3882 C   0  0  0  0  0  0  0  0  0  0  0  0
  -12.2635   -7.1425    6.2170 O   0  0  0  0  0  0  0  0  0  0  0  0
  -11.4101   -7.2249    3.2530 O   0  0  0  0  0  0  0  0  0  0  0  0
  -19.6000   -7.4585    4.4327 C   0  0  0  0  0  0  0  0  0  0  0  0
  1  4  1  0
  1  9  1  0
  1 12  2  0
  2  4  2  0
  3  7  2  0
  3  8  1  0
  4 13  1  0
  5  9  1  0
  5 11  1  0
  6 10  1  0
  6 14  2  0
  7 14  1  0
  8 10  2  0
  8 11  1  0
M  END
$$$$
