
     RDKit          3D

  9  8  0  0  0  0  0  0  0  0999 V2000
  -16.1902   -6.2184    4.2015 C   0  0  0  0  0  0  0  0  0  0  0  0
  -18.5124   -4.9412    4.1696 C   0  0  0  0  0  0  0  0  0  0  0  0
  -14.9867   -5.8383    4.3265 C   0  0  0  0  0  0  0  0  0  0  0  0
  -16.9276   -6.1284    5.6047 C   0  0  0  0  0  0  0  0  0  0  0  0
  -13.8758   -6.5454    5.0445 C   0  0  0  0  0  0  0  0  0  0  0  0
  -18.4113   -6.0603    5.2770 C   0  0  0  0  0  0  0  0  0  0  0  0
  -18.7582   -7.4070    4.5679 C   0  0  0  0  0  0  0  0  0  0  0  0
  -12.6658   -6.6568    4.5584 O   0  0  0  0  0  0  0  0  0  0  0  0
  -14.2868   -7.1287    5.9252 O   0  0  0  0  0  0  0  0  0  0  0  0
  1  3  1  0
  1  4  1  0
  2  6  1  0
  3  5  1  0
  4  6  1  0
  5  8  2  0
  5  9  1  0
  6  7  1  0
M  END
$$$$
