
     RDKit          3D

 31 32  0  0  0  0  0  0  0  0999 V2000
  -20.1120  -12.6135    9.3407 C   0  0  0  0  0  0  0  0  0  0  0  0
  -20.3071   -7.6079   12.9610 O   0  0  0  0  0  0  0  0  0  0  0  0
  -17.4304   -7.0088   13.0372 C   0  0  0  0  0  0  0  0  0  0  0  0
  -17.7562   -9.4739   13.3003 C   0  0  0  0  0  0  0  0  0  0  0  0
  -20.4280  -11.5250   11.5834 C   0  0  0  0  0  0  0  0  0  0  0  0
  -19.1277   -9.8006   12.8407 C   0  0  0  0  0  0  0  0  0  0  0  0
  -22.6846   -9.1255   13.1664 O   0  0  0  0  0  0  0  0  0  0  0  0
  -22.4698  -11.8589   12.7475 O   0  0  0  0  0  0  0  0  0  0  0  0
  -21.5906   -9.5916   12.4389 C   0  0  0  0  0  0  0  0  0  0  0  0
  -20.5305  -12.6459   10.7036 C   0  0  0  0  0  0  0  0  0  0  0  0
  -21.3894  -11.0991   12.5725 C   0  0  0  0  0  0  0  0  0  0  0  0
  -16.6121   -5.9758   16.1231 O   0  0  0  0  0  0  0  0  0  0  0  0
  -17.5923   -8.1541   15.2969 O   0  0  0  0  0  0  0  0  0  0  0  0
  -19.1475  -10.8334   11.7716 C   0  0  0  0  0  0  0  0  0  0  0  0
  -17.3782  -13.9603    7.4927 O   0  0  0  0  0  0  0  0  0  0  0  0
  -16.4445   -7.4535   16.1422 P   0  0  0  0  0  0  0  0  0  0  0  0
  -21.5070  -13.0606    5.9275 C   0  0  0  0  0  0  0  0  0  0  0  0
  -21.7693   -9.2829   11.0400 O   0  0  0  0  0  0  0  0  0  0  0  0
  -20.8140  -12.6571    8.1896 C   0  0  0  0  0  0  0  0  0  0  0  0
  -20.1422  -13.4857    5.8302 C   0  0  0  0  0  0  0  0  0  0  0  0
  -18.6593  -12.9328    9.1564 C   0  0  0  0  0  0  0  0  0  0  0  0
  -16.4944  -12.7597   10.2444 O   0  0  0  0  0  0  0  0  0  0  0  0
  -17.7894  -12.4282   10.1741 C   0  0  0  0  0  0  0  0  0  0  0  0
  -17.7609   -8.1480   13.9605 C   0  0  0  0  0  0  0  0  0  0  0  0
  -15.1192   -7.8127   15.4725 O   0  0  0  0  0  0  0  0  0  0  0  0
  -20.7364  -13.7904   11.2766 O   0  0  0  0  0  0  0  0  0  0  0  0
  -19.4663  -13.3928    6.8958 C   0  0  0  0  0  0  0  0  0  0  0  0
  -16.5091   -7.9976   17.5597 O   0  0  0  0  0  0  0  0  0  0  0  0
  -21.8011  -12.5877    7.3078 C   0  0  0  0  0  0  0  0  0  0  0  0
  -20.3128   -8.9558   12.9642 C   0  0  0  0  0  0  0  0  0  0  0  0
  -18.4438  -13.4204    7.7689 C   0  0  0  0  0  0  0  0  0  0  0  0
  1 10  1  0
  1 19  2  0
  1 21  1  0
  2 30  1  0
  3 24  1  0
  4  6  1  0
  4 24  1  0
  5 10  1  0
  5 11  1  0
  5 14  2  0
  6 14  1  0
  6 30  1  0
  7  9  1  0
  8 11  1  0
  9 11  1  0
  9 18  1  0
  9 30  1  0
 10 26  1  0
 12 16  1  0
 13 16  1  0
 13 24  1  0
 15 31  1  0
 16 25  1  0
 16 28  1  0
 17 20  1  0
 17 29  1  0
 19 29  2  0
 20 27  2  0
 21 23  1  0
 21 31  1  0
 22 23  1  0
 27 31  2  0
M  END
$$$$
