
     RDKit          3D

 24 27  0  0  0  0  0  0  0  0999 V2000
  -16.8087   14.0323  -27.5218 C   0  0  0  0  0  0  0  0  0  0  0  0
  -24.2945   15.3006  -28.9419 C   0  0  0  0  0  0  0  0  0  0  0  0
  -18.6474   15.6445  -31.8954 C   0  0  0  0  0  0  0  0  0  0  0  0
  -24.3078   16.3224  -27.7702 C   0  0  0  0  0  0  0  0  0  0  0  0
  -19.8023   15.9382  -27.8953 C   0  0  0  0  0  0  0  0  0  0  0  0
  -18.5725   15.4721  -28.2528 C   0  0  0  0  0  0  0  0  0  0  0  0
  -23.0580   15.6132  -29.7440 C   0  0  0  0  0  0  0  0  0  0  0  0
  -15.4974   16.1600  -26.5122 C   0  0  0  0  0  0  0  0  0  0  0  0
  -19.4392   16.2807  -32.8576 C   0  0  0  0  0  0  0  0  0  0  0  0
  -18.3285   15.2844  -29.5614 N   0  0  0  0  0  0  0  0  0  0  0  0
  -22.1452   16.4081  -28.8334 N   0  0  0  0  0  0  0  0  0  0  0  0
  -17.4420   15.2467  -27.4608 C   0  0  0  0  0  0  0  0  0  0  0  0
  -16.7753   16.3327  -26.8510 C   0  0  0  0  0  0  0  0  0  0  0  0
  -20.2518   16.4135  -30.2445 C   0  0  0  0  0  0  0  0  0  0  0  0
  -20.7397   16.3107  -28.9206 C   0  0  0  0  0  0  0  0  0  0  0  0
  -20.8339   17.2142  -31.2093 N   0  0  0  0  0  0  0  0  0  0  0  0
  -15.5616   13.8247  -27.0573 C   0  0  0  0  0  0  0  0  0  0  0  0
  -19.0631   15.7618  -30.5530 C   0  0  0  0  0  0  0  0  0  0  0  0
  -21.9574   17.1174  -26.6674 O   0  0  0  0  0  0  0  0  0  0  0  0
  -19.2645   15.9122  -34.2727 C   0  0  0  0  0  0  0  0  0  0  0  0
  -22.7803   16.7189  -27.6088 C   0  0  0  0  0  0  0  0  0  0  0  0
  -14.8428   14.8897  -26.5801 C   0  0  0  0  0  0  0  0  0  0  0  0
  -20.3005   17.2129  -32.4119 C   0  0  0  0  0  0  0  0  0  0  0  0
  -24.2666   13.9271  -28.1583 C   0  0  0  0  0  0  0  0  0  0  0  0
  1 12  1  0
  1 17  2  0
  2  4  1  0
  2  7  1  0
  2 24  1  0
  3  9  1  0
  3 18  1  0
  4 21  1  0
  5  6  2  0
  5 15  1  0
  6 10  1  0
  6 12  1  0
  7 11  1  0
  8 13  2  0
  8 22  1  0
  9 20  1  0
  9 23  1  0
 10 18  2  0
 11 15  1  0
 11 21  1  0
 12 13  1  0
 14 15  1  0
 14 16  2  0
 14 18  1  0
 16 23  1  0
 17 22  1  0
 19 21  2  0
M  END
$$$$
