
     RDKit          3D

 20 22  0  0  0  0  0  0  0  0999 V2000
  -17.3684   15.4010  -28.3885 C   0  0  0  0  0  0  0  0  0  0  0  0
  -18.5949   15.6456  -28.7977 O   0  0  0  0  0  0  0  0  0  0  0  0
  -17.4097   17.6776  -30.0995 C   0  0  0  0  0  0  0  0  0  0  0  0
  -16.6151   18.0831  -28.6602 C   0  0  0  0  0  0  0  0  0  0  0  0
  -15.9829   15.7437  -29.1134 C   0  0  0  0  0  0  0  0  0  0  0  0
  -18.8950   17.3332  -30.7917 C   0  0  0  0  0  0  0  0  0  0  0  0
  -21.6562   15.6948  -26.9972 C   0  0  0  0  0  0  0  0  0  0  0  0
  -24.1020   13.9604  -28.4921 O   0  0  0  0  0  0  0  0  0  0  0  0
  -20.7975   16.2953  -29.5069 C   0  0  0  0  0  0  0  0  0  0  0  0
  -19.8915   15.9135  -28.4787 C   0  0  0  0  0  0  0  0  0  0  0  0
  -22.5435   15.5953  -28.0666 C   0  0  0  0  0  0  0  0  0  0  0  0
  -15.4607   17.0300  -28.2833 C   0  0  0  0  0  0  0  0  0  0  0  0
  -15.5379   14.9040  -26.6921 C   0  0  0  0  0  0  0  0  0  0  0  0
  -24.7808   15.8549  -27.6076 O   0  0  0  0  0  0  0  0  0  0  0  0
  -15.4239   16.4996  -26.7436 C   0  0  0  0  0  0  0  0  0  0  0  0
  -23.8859   15.0871  -27.9855 C   0  0  0  0  0  0  0  0  0  0  0  0
  -20.2994   16.9959  -30.6425 N   0  0  0  0  0  0  0  0  0  0  0  0
  -20.3081   15.7547  -27.1912 C   0  0  0  0  0  0  0  0  0  0  0  0
  -22.1094   16.0529  -29.3409 C   0  0  0  0  0  0  0  0  0  0  0  0
  -17.0141   14.5350  -27.2973 C   0  0  0  0  0  0  0  0  0  0  0  0
  1  2  1  0
  1  5  1  0
  1 20  1  0
  2 10  1  0
  3  4  1  0
  3  6  2  3
  4 12  1  0
  5 12  1  0
  6 17  1  0
  7 11  1  0
  7 18  1  0
  8 16  2  0
  9 10  1  0
  9 17  1  0
  9 19  2  0
 10 18  2  0
 11 16  1  0
 11 19  1  0
 12 15  1  0
 13 15  1  0
 13 20  1  0
 14 16  1  0
M  END
$$$$
