
     RDKit          3D

 32 34  0  0  0  0  0  0  0  0999 V2000
  -18.0364   16.9551  -25.6840 O   0  0  0  0  0  0  0  0  0  0  0  0
  -16.0862   15.3334  -32.3359 C   0  0  0  0  0  0  0  0  0  0  0  0
  -15.7228   17.8843  -29.6318 C   0  0  0  0  0  0  0  0  0  0  0  0
  -24.0785   13.4358  -28.9083 C   0  0  0  0  0  0  0  0  0  0  0  0
  -17.4834   14.8339  -32.9506 C   0  0  0  0  0  0  0  0  0  0  0  0
  -21.5437   15.7576  -26.8585 C   0  0  0  0  0  0  0  0  0  0  0  0
  -18.2551   15.8374  -27.7601 C   0  0  0  0  0  0  0  0  0  0  0  0
  -17.4189   15.3959  -28.8232 C   0  0  0  0  0  0  0  0  0  0  0  0
  -13.9770   15.1308  -27.2741 C   0  0  0  0  0  0  0  0  0  0  0  0
  -19.0075   14.4248  -32.6612 C   0  0  0  0  0  0  0  0  0  0  0  0
  -16.1838   13.8711  -27.3768 C   0  0  0  0  0  0  0  0  0  0  0  0
  -19.5241   15.8578  -30.3665 C   0  0  0  0  0  0  0  0  0  0  0  0
  -25.9466   14.6940  -28.5039 O   0  0  0  0  0  0  0  0  0  0  0  0
  -17.6587   16.6528  -26.7378 C   0  0  0  0  0  0  0  0  0  0  0  0
  -14.7844   17.2372  -28.6248 C   0  0  0  0  0  0  0  0  0  0  0  0
  -24.5990   14.8278  -28.8846 C   0  0  0  0  0  0  0  0  0  0  0  0
  -20.3003   16.0699  -29.0609 C   0  0  0  0  0  0  0  0  0  0  0  0
  -15.1398   16.0072  -27.7930 C   0  0  0  0  0  0  0  0  0  0  0  0
  -18.2299   15.0902  -30.0452 C   0  0  0  0  0  0  0  0  0  0  0  0
  -14.6487   13.8228  -26.7079 C   0  0  0  0  0  0  0  0  0  0  0  0
  -24.6319   15.5303  -30.2766 C   0  0  0  0  0  0  0  0  0  0  0  0
  -22.4258   15.8094  -27.8865 C   0  0  0  0  0  0  0  0  0  0  0  0
  -15.3666   17.8243  -30.8892 O   0  0  0  0  0  0  0  0  0  0  0  0
  -17.5516   15.7744  -34.1438 C   0  0  0  0  0  0  0  0  0  0  0  0
  -16.4474   18.8886  -29.2402 O   0  0  0  0  0  0  0  0  0  0  0  0
  -13.4286   17.8639  -28.4948 C   0  0  0  0  0  0  0  0  0  0  0  0
  -21.6950   16.0334  -29.0802 C   0  0  0  0  0  0  0  0  0  0  0  0
  -20.3764   15.7535  -26.6757 C   0  0  0  0  0  0  0  0  0  0  0  0
  -19.8272   15.4912  -31.8069 O   0  0  0  0  0  0  0  0  0  0  0  0
  -16.1675   15.1550  -28.2152 N   0  0  0  0  0  0  0  0  0  0  0  0
  -23.8699   15.7034  -27.8831 C   0  0  0  0  0  0  0  0  0  0  0  0
  -19.6300   15.8199  -27.8015 C   0  0  0  0  0  0  0  0  0  0  0  0
  1 14  2  0
  2  5  1  0
  3 15  1  0
  3 23  2  0
  3 25  1  0
  4 16  1  0
  5 10  1  0
  5 24  1  0
  6 22  2  0
  6 28  1  0
  7  8  1  0
  7 14  1  0
  7 32  1  0
  8 19  1  0
  8 30  1  0
  9 18  1  0
  9 20  1  0
 10 29  1  0
 11 20  1  0
 11 30  1  0
 12 17  1  0
 12 19  1  0
 12 29  1  0
 13 16  1  0
 15 18  1  0
 15 26  1  0
 16 21  1  0
 16 31  1  0
 17 27  2  0
 17 32  1  0
 18 30  1  0
 22 27  1  0
 22 31  1  0
 28 32  1  0
M  END
$$$$
