
     RDKit          3D

 16 17  0  0  0  0  0  0  0  0999 V2000
  -19.8809   15.7745  -28.6539 C   0  0  0  0  0  0  0  0  0  0  0  0
  -23.6104   14.7373  -29.6296 O   0  0  0  0  0  0  0  0  0  0  0  0
  -15.8746   14.9244  -27.3577 O   0  0  0  0  0  0  0  0  0  0  0  0
  -18.6309   15.3836  -28.3634 C   0  0  0  0  0  0  0  0  0  0  0  0
  -21.6454   16.0162  -30.9322 C   0  0  0  0  0  0  0  0  0  0  0  0
  -23.8577   17.1535  -30.2414 O   0  0  0  0  0  0  0  0  0  0  0  0
  -14.4340   15.0282  -26.9405 C   0  0  0  0  0  0  0  0  0  0  0  0
  -16.8443   15.6998  -26.8855 C   0  0  0  0  0  0  0  0  0  0  0  0
  -20.3443   16.6920  -26.5930 C   0  0  0  0  0  0  0  0  0  0  0  0
  -18.9726   16.5915  -26.3512 C   0  0  0  0  0  0  0  0  0  0  0  0
  -22.9073   16.0511  -29.7868 S   0  0  0  0  0  0  0  0  0  0  0  0
  -22.2530   16.4384  -28.1796 C   0  0  0  0  0  0  0  0  0  0  0  0
  -16.5203   16.7870  -25.5166 S   0  0  0  0  0  0  0  0  0  0  0  0
  -18.2682   17.2414  -25.2787 C   0  0  0  0  0  0  0  0  0  0  0  0
  -20.7757   16.2271  -27.8252 C   0  0  0  0  0  0  0  0  0  0  0  0
  -18.1607   15.8045  -27.2390 C   0  0  0  0  0  0  0  0  0  0  0  0
  1  4  1  0
  1 15  1  0
  2 11  1  0
  3  7  1  0
  3  8  1  0
  4 16  2  0
  5 11  1  0
  6 11  1  0
  8 13  1  0
  8 16  1  0
  9 10  1  0
  9 15  2  0
 10 14  1  0
 10 16  1  0
 11 12  1  0
 12 15  1  0
 13 14  1  0
M  END
$$$$
