
     RDKit          3D

 27 30  0  0  0  0  0  0  0  0999 V2000
  -18.4871   16.5058  -26.3129 C   0  0  0  0  0  0  0  0  0  0  0  0
  -20.9618   17.5810  -30.5412 C   0  0  0  0  0  0  0  0  0  0  0  0
  -19.1206   16.9810  -32.8404 C   0  0  0  0  0  0  0  0  0  0  0  0
  -16.1551   16.8712  -30.2125 C   0  0  0  0  0  0  0  0  0  0  0  0
  -15.1009   14.6790  -28.8734 C   0  0  0  0  0  0  0  0  0  0  0  0
  -16.8757   14.2616  -27.3045 C   0  0  0  0  0  0  0  0  0  0  0  0
  -21.1745   16.2382  -27.0136 C   0  0  0  0  0  0  0  0  0  0  0  0
  -20.5843   15.1521  -31.9219 C   0  0  0  0  0  0  0  0  0  0  0  0
  -20.1741   15.7031  -27.6620 C   0  0  0  0  0  0  0  0  0  0  0  0
  -20.7827   16.9321  -25.8275 C   0  0  0  0  0  0  0  0  0  0  0  0
  -23.3810   17.5754  -27.5481 C   0  0  0  0  0  0  0  0  0  0  0  0
  -19.8745   14.6187  -33.0685 C   0  0  0  0  0  0  0  0  0  0  0  0
  -18.4227   16.5371  -31.4862 C   0  0  0  0  0  0  0  0  0  0  0  0
  -19.4285   17.0755  -25.5488 C   0  0  0  0  0  0  0  0  0  0  0  0
  -17.4242   17.6776  -30.9431 C   0  0  0  0  0  0  0  0  0  0  0  0
  -22.5806   16.2720  -27.5278 C   0  0  0  0  0  0  0  0  0  0  0  0
  -17.7501   14.9779  -28.1900 C   0  0  0  0  0  0  0  0  0  0  0  0
  -19.3041   15.7838  -33.8598 C   0  0  0  0  0  0  0  0  0  0  0  0
  -14.4481   13.8456  -26.6590 C   0  0  0  0  0  0  0  0  0  0  0  0
  -16.6989   15.2974  -29.3456 C   0  0  0  0  0  0  0  0  0  0  0  0
  -13.9159   14.8140  -27.7561 C   0  0  0  0  0  0  0  0  0  0  0  0
  -22.4833   15.6854  -30.3636 C   0  0  0  0  0  0  0  0  0  0  0  0
  -20.8291   16.0401  -30.7368 C   0  0  0  0  0  0  0  0  0  0  0  0
  -22.7596   15.7801  -28.9573 O   0  0  0  0  0  0  0  0  0  0  0  0
  -19.2174   15.8080  -30.3831 C   0  0  0  0  0  0  0  0  0  0  0  0
  -18.8694   15.6520  -27.3978 C   0  0  0  0  0  0  0  0  0  0  0  0
  -15.7494   13.4551  -27.7334 C   0  0  0  0  0  0  0  0  0  0  0  0
  1 14  2  0
  1 26  1  0
  2 23  1  0
  3 13  1  0
  3 18  1  0
  4 15  1  0
  5 20  1  0
  5 21  1  0
  5 27  1  0
  6 17  1  0
  6 27  1  0
  7  9  1  0
  7 10  2  0
  7 16  1  0
  8 12  1  0
  8 23  1  0
  9 26  2  0
 10 14  1  0
 11 16  1  0
 12 18  1  0
 13 15  1  0
 13 25  1  0
 16 24  1  0
 17 20  1  0
 17 26  1  0
 19 21  1  0
 19 27  1  0
 22 23  1  0
 22 24  1  0
 23 25  1  0
M  END
$$$$
