
     RDKit          3D

 22 24  0  0  0  0  0  0  0  0999 V2000
  -19.8009   16.4303  -31.2032 C   0  0  0  0  0  0  0  0  0  0  0  0
  -20.4820   16.2522  -29.0453 O   0  0  0  0  0  0  0  0  0  0  0  0
  -21.1436   16.5620  -26.6191 C   0  0  0  0  0  0  0  0  0  0  0  0
  -19.1480   15.7881  -29.9312 N   0  0  0  0  0  0  0  0  0  0  0  0
  -17.8339   15.2399  -29.6257 C   0  0  0  0  0  0  0  0  0  0  0  0
  -15.5847   13.0747  -27.1862 C   0  0  0  0  0  0  0  0  0  0  0  0
  -21.1655   16.7355  -30.3742 C   0  0  0  0  0  0  0  0  0  0  0  0
  -14.1174   13.5677  -26.8699 C   0  0  0  0  0  0  0  0  0  0  0  0
  -19.2480   17.8509  -31.4632 C   0  0  0  0  0  0  0  0  0  0  0  0
  -16.1400   16.1909  -26.0880 O   0  0  0  0  0  0  0  0  0  0  0  0
  -22.6110   16.9435  -30.0435 C   0  0  0  0  0  0  0  0  0  0  0  0
  -17.6422   14.7775  -28.2007 C   0  0  0  0  0  0  0  0  0  0  0  0
  -18.7122   15.4286  -27.3186 C   0  0  0  0  0  0  0  0  0  0  0  0
  -21.5926   16.2527  -28.0189 C   0  0  0  0  0  0  0  0  0  0  0  0
  -15.6335   15.3903  -26.8132 C   0  0  0  0  0  0  0  0  0  0  0  0
  -16.4102   14.2636  -27.5470 C   0  0  0  0  0  0  0  0  0  0  0  0
  -22.8120   16.7393  -28.5818 C   0  0  0  0  0  0  0  0  0  0  0  0
  -19.0209   17.2155  -25.4828 C   0  0  0  0  0  0  0  0  0  0  0  0
  -19.7095   16.1799  -26.4856 C   0  0  0  0  0  0  0  0  0  0  0  0
  -16.8746   15.5528  -30.2956 O   0  0  0  0  0  0  0  0  0  0  0  0
  -23.7839   17.2103  -27.5620 C   0  0  0  0  0  0  0  0  0  0  0  0
  -14.1868   15.0385  -26.8770 C   0  0  0  0  0  0  0  0  0  0  0  0
  1  4  1  0
  1  7  1  0
  1  9  1  0
  2  7  1  0
  2 14  1  0
  3 14  1  0
  3 19  1  0
  4  5  1  0
  5 12  1  0
  5 20  2  0
  6  8  1  0
  6 16  1  0
  7 11  1  0
  8 22  1  0
 10 15  2  0
 11 17  1  0
 12 13  2  0
 12 16  1  0
 13 19  2  0
 14 17  1  0
 15 16  1  0
 15 22  1  0
 17 21  1  0
 18 19  1  0
M  END
$$$$
