
     RDKit          3D

 25 26  0  0  0  0  0  0  0  0999 V2000
  -17.2934   15.9641  -29.1433 O   0  0  0  0  0  0  0  0  0  0  0  0
  -17.8705   15.8363  -27.9826 C   0  0  0  0  0  0  0  0  0  0  0  0
  -19.2826   16.0539  -27.9585 C   0  0  0  0  0  0  0  0  0  0  0  0
  -21.0702   16.1322  -29.7916 C   0  0  0  0  0  0  0  0  0  0  0  0
  -17.0791   15.9040  -26.9177 N   0  0  0  0  0  0  0  0  0  0  0  0
  -21.2598   16.2219  -26.6621 C   0  0  0  0  0  0  0  0  0  0  0  0
  -25.1811   15.5163  -28.4859 O   0  0  0  0  0  0  0  0  0  0  0  0
  -25.0349   13.5496  -30.2195 C   0  0  0  0  0  0  0  0  0  0  0  0
  -21.2220   16.2743  -31.1481 O   0  0  0  0  0  0  0  0  0  0  0  0
  -15.3874   17.4356  -26.1992 C   0  0  0  0  0  0  0  0  0  0  0  0
  -16.7187   16.7298  -25.7329 C   0  0  0  0  0  0  0  0  0  0  0  0
  -14.7086   16.3653  -27.1458 C   0  0  0  0  0  0  0  0  0  0  0  0
  -24.6394   15.2111  -29.8024 S   0  0  0  0  0  0  0  0  0  0  0  0
  -19.6192   17.9524  -31.1237 N   0  0  0  0  0  0  0  0  0  0  0  0
  -18.5134   18.8282  -31.0748 C   0  0  0  0  0  0  0  0  0  0  0  0
  -18.7185   20.0438  -30.7436 O   0  0  0  0  0  0  0  0  0  0  0  0
  -19.9311   16.1831  -29.1125 C   0  0  0  0  0  0  0  0  0  0  0  0
  -25.1399   16.0864  -30.8104 O   0  0  0  0  0  0  0  0  0  0  0  0
  -23.0818   15.2103  -29.8470 C   0  0  0  0  0  0  0  0  0  0  0  0
  -15.7543   15.1204  -27.0170 C   0  0  0  0  0  0  0  0  0  0  0  0
  -20.3571   17.0512  -31.8713 C   0  0  0  0  0  0  0  0  0  0  0  0
  -17.2708   18.3927  -31.2108 O   0  0  0  0  0  0  0  0  0  0  0  0
  -22.1953   15.8295  -29.0063 C   0  0  0  0  0  0  0  0  0  0  0  0
  -19.9184   16.2016  -26.7447 C   0  0  0  0  0  0  0  0  0  0  0  0
  -22.1913   16.0248  -27.6035 C   0  0  0  0  0  0  0  0  0  0  0  0
  1  2  2  0
  2  3  1  0
  2  5  1  0
  3 17  1  0
  3 24  2  0
  4  9  1  0
  4 17  2  0
  4 23  1  0
  5 11  1  0
  5 20  1  0
  6 24  1  0
  6 25  2  0
  7 13  1  0
  8 13  1  0
  9 21  1  0
 10 11  1  0
 10 12  1  0
 12 20  1  0
 13 18  1  0
 13 19  1  0
 14 15  1  0
 14 21  1  0
 15 16  2  0
 15 22  1  0
 19 23  1  0
 23 25  1  0
M  END
$$$$
