
     RDKit          3D

 31 35  0  0  0  0  0  0  0  0999 V2000
  -19.3798   17.1555  -27.6335 C   0  0  0  0  0  0  0  0  0  0  0  0
  -22.4698   17.1721  -29.0279 C   0  0  0  0  0  0  0  0  0  0  0  0
  -19.0575   17.5353  -26.1769 C   0  0  0  0  0  0  0  0  0  0  0  0
  -22.4136   15.4235  -30.4909 O   0  0  0  0  0  0  0  0  0  0  0  0
  -17.6118   15.3644  -27.3013 C   0  0  0  0  0  0  0  0  0  0  0  0
  -14.7569   14.2900  -26.8167 C   0  0  0  0  0  0  0  0  0  0  0  0
  -17.8527   15.7431  -33.9960 C   0  0  0  0  0  0  0  0  0  0  0  0
  -16.8245   16.8651  -25.3137 O   0  0  0  0  0  0  0  0  0  0  0  0
  -18.4907   16.8157  -33.3615 C   0  0  0  0  0  0  0  0  0  0  0  0
  -16.6100   16.0543  -26.4265 C   0  0  0  0  0  0  0  0  0  0  0  0
  -18.3063   17.8012  -23.7335 C   0  0  0  0  0  0  0  0  0  0  0  0
  -20.2252   16.3289  -30.0713 C   0  0  0  0  0  0  0  0  0  0  0  0
  -21.4517   18.1708  -28.5668 C   0  0  0  0  0  0  0  0  0  0  0  0
  -16.5629   15.9958  -34.6562 C   0  0  0  0  0  0  0  0  0  0  0  0
  -20.0672   14.7336  -32.3073 C   0  0  0  0  0  0  0  0  0  0  0  0
  -18.7497   15.8535  -27.9439 C   0  0  0  0  0  0  0  0  0  0  0  0
  -18.9752   15.6382  -29.3544 C   0  0  0  0  0  0  0  0  0  0  0  0
  -17.0855   14.2578  -28.0050 C   0  0  0  0  0  0  0  0  0  0  0  0
  -18.0580   17.3666  -25.0708 C   0  0  0  0  0  0  0  0  0  0  0  0
  -19.4226   17.9965  -23.4356 O   0  0  0  0  0  0  0  0  0  0  0  0
  -23.0792   16.2962  -27.8629 C   0  0  0  0  0  0  0  0  0  0  0  0
  -19.3587   16.9022  -32.3965 C   0  0  0  0  0  0  0  0  0  0  0  0
  -20.1030   17.5655  -28.8828 N   0  0  0  0  0  0  0  0  0  0  0  0
  -21.7310   16.1317  -29.9887 C   0  0  0  0  0  0  0  0  0  0  0  0
  -19.9899   15.9107  -31.6148 C   0  0  0  0  0  0  0  0  0  0  0  0
  -15.1196   15.8355  -26.7094 C   0  0  0  0  0  0  0  0  0  0  0  0
  -17.2661   17.6586  -22.9663 O   0  0  0  0  0  0  0  0  0  0  0  0
  -18.3446   14.4787  -33.8624 C   0  0  0  0  0  0  0  0  0  0  0  0
  -16.4460   15.3132  -35.8820 N   0  0  0  0  0  0  0  0  0  0  0  0
  -16.0654   13.4572  -27.2431 C   0  0  0  0  0  0  0  0  0  0  0  0
  -19.4488   14.0347  -33.1663 C   0  0  0  0  0  0  0  0  0  0  0  0
  1  3  1  0
  1 16  1  0
  1 23  1  0
  2 13  1  0
  2 21  1  0
  2 24  1  0
  3 19  2  0
  4 24  2  0
  5 10  1  0
  5 16  1  0
  5 18  1  0
  6 26  1  0
  6 30  1  0
  7  9  1  0
  7 14  1  0
  7 28  2  0
  8 10  1  0
  8 19  1  0
  9 22  2  0
 10 26  1  0
 11 19  1  0
 11 20  2  0
 11 27  1  0
 12 17  1  0
 12 23  1  0
 12 24  1  0
 12 25  1  0
 13 23  1  0
 14 29  1  0
 15 25  1  0
 15 31  2  0
 16 17  1  0
 18 30  1  0
 22 25  1  0
 28 31  1  0
M  END
$$$$
