
     RDKit          3D

 35 37  0  0  0  0  0  0  0  0999 V2000
  -22.6751   17.9222  -27.7382 C   0  0  0  0  0  0  0  0  0  0  0  0
  -19.2294   15.5099  -29.9826 O   0  0  0  0  0  0  0  0  0  0  0  0
  -19.8890   15.8522  -32.1328 C   0  0  0  0  0  0  0  0  0  0  0  0
  -19.7150   18.4505  -23.9441 O   0  0  0  0  0  0  0  0  0  0  0  0
  -22.0436   16.6244  -27.3574 N   0  0  0  0  0  0  0  0  0  0  0  0
  -21.7240   20.2696  -27.6836 C   0  0  0  0  0  0  0  0  0  0  0  0
  -18.0057   14.8648  -27.5311 C   0  0  0  0  0  0  0  0  0  0  0  0
  -19.5732   14.0642  -33.4053 C   0  0  0  0  0  0  0  0  0  0  0  0
  -19.8381   16.3871  -27.1361 C   0  0  0  0  0  0  0  0  0  0  0  0
  -20.3035   13.2639  -32.8824 O   0  0  0  0  0  0  0  0  0  0  0  0
  -23.9812   17.1210  -28.5452 C   0  0  0  0  0  0  0  0  0  0  0  0
  -14.5159   15.5384  -27.1671 F   0  0  0  0  0  0  0  0  0  0  0  0
  -20.7902   18.5417  -26.0689 C   0  0  0  0  0  0  0  0  0  0  0  0
  -18.9997   15.1642  -31.1890 C   0  0  0  0  0  0  0  0  0  0  0  0
  -19.5867   15.4825  -33.5294 C   0  0  0  0  0  0  0  0  0  0  0  0
  -23.7439   15.7307  -27.8210 C   0  0  0  0  0  0  0  0  0  0  0  0
  -19.9517   17.6075  -26.5863 N   0  0  0  0  0  0  0  0  0  0  0  0
  -22.6040   18.2478  -30.9772 O   0  0  0  0  0  0  0  0  0  0  0  0
  -20.3163   19.1120  -24.7795 C   0  0  0  0  0  0  0  0  0  0  0  0
  -25.0706   16.7440  -29.6127 C   0  0  0  0  0  0  0  0  0  0  0  0
  -20.4930   20.4508  -24.8547 N   0  0  0  0  0  0  0  0  0  0  0  0
  -21.6575   17.3772  -31.2361 C   0  0  0  0  0  0  0  0  0  0  0  0
  -16.6946   14.5789  -27.3135 C   0  0  0  0  0  0  0  0  0  0  0  0
  -25.7531   15.5426  -29.0744 O   0  0  0  0  0  0  0  0  0  0  0  0
  -25.0804   15.0670  -27.7945 C   0  0  0  0  0  0  0  0  0  0  0  0
  -17.6295   17.1187  -27.9390 C   0  0  0  0  0  0  0  0  0  0  0  0
  -21.0331   15.8542  -27.3711 N   0  0  0  0  0  0  0  0  0  0  0  0
  -24.7558   13.5377  -27.6804 C   0  0  0  0  0  0  0  0  0  0  0  0
  -16.3208   16.9154  -27.8501 C   0  0  0  0  0  0  0  0  0  0  0  0
  -20.2178   21.1812  -26.0221 C   0  0  0  0  0  0  0  0  0  0  0  0
  -20.9142   16.4280  -31.6184 C   0  0  0  0  0  0  0  0  0  0  0  0
  -21.9873   19.0469  -26.8094 C   0  0  0  0  0  0  0  0  0  0  0  0
  -15.8161   15.6724  -27.4048 C   0  0  0  0  0  0  0  0  0  0  0  0
  -18.5100   15.9786  -27.5432 C   0  0  0  0  0  0  0  0  0  0  0  0
  -20.4877   20.8204  -27.3333 N   0  0  0  0  0  0  0  0  0  0  0  0
  1  5  1  0
  1 11  1  0
  1 32  1  0
  2 14  1  0
  3 14  1  0
  3 15  1  0
  3 31  1  0
  4 19  2  0
  5 27  1  0
  6 32  1  0
  6 35  1  0
  7 23  2  0
  7 34  1  0
  8 10  2  0
  8 15  1  0
  9 17  2  0
  9 27  1  0
  9 34  1  0
 11 16  1  0
 11 20  1  0
 12 33  1  0
 13 17  1  0
 13 19  1  0
 13 32  1  0
 16 25  1  0
 18 22  1  0
 19 21  1  0
 20 24  1  0
 21 30  1  0
 22 31  3  0
 23 33  1  0
 24 25  1  0
 25 28  1  0
 26 29  2  0
 26 34  1  0
 29 33  1  0
 30 35  1  0
M  END
$$$$
