
     RDKit          3D

 31 36  0  0  0  0  0  0  0  0999 V2000
  -21.8171   15.7893  -30.7952 C   0  0  0  0  0  0  0  0  0  0  0  0
  -20.9921   17.2714  -29.1638 C   0  0  0  0  0  0  0  0  0  0  0  0
  -18.3015   15.3264  -29.6241 C   0  0  0  0  0  0  0  0  0  0  0  0
  -16.8920   16.7320  -25.8527 C   0  0  0  0  0  0  0  0  0  0  0  0
  -21.8903   16.1324  -27.1507 C   0  0  0  0  0  0  0  0  0  0  0  0
  -15.5121   17.6910  -27.7600 C   0  0  0  0  0  0  0  0  0  0  0  0
  -13.9754   17.4402  -27.7972 C   0  0  0  0  0  0  0  0  0  0  0  0
  -20.0201   17.2382  -28.0914 C   0  0  0  0  0  0  0  0  0  0  0  0
  -20.0154   17.0522  -31.8809 O   0  0  0  0  0  0  0  0  0  0  0  0
  -22.7459   18.3612  -27.9189 C   0  0  0  0  0  0  0  0  0  0  0  0
  -22.6775   15.6078  -28.3789 C   0  0  0  0  0  0  0  0  0  0  0  0
  -17.0296   14.3036  -27.8563 C   0  0  0  0  0  0  0  0  0  0  0  0
  -20.1430   14.8027  -32.2815 C   0  0  0  0  0  0  0  0  0  0  0  0
  -18.1889   17.2190  -26.3250 C   0  0  0  0  0  0  0  0  0  0  0  0
  -13.4920   16.0427  -28.3089 C   0  0  0  0  0  0  0  0  0  0  0  0
  -24.1099   16.0921  -27.9252 C   0  0  0  0  0  0  0  0  0  0  0  0
  -15.1255   15.3154  -26.6060 C   0  0  0  0  0  0  0  0  0  0  0  0
  -16.0066   16.3871  -27.0226 C   0  0  0  0  0  0  0  0  0  0  0  0
  -22.1364   16.3679  -29.5755 C   0  0  0  0  0  0  0  0  0  0  0  0
  -15.8357   15.2750  -27.9876 C   0  0  0  0  0  0  0  0  0  0  0  0
  -18.8052   16.4681  -27.4957 C   0  0  0  0  0  0  0  0  0  0  0  0
  -21.4524   17.5438  -27.5976 C   0  0  0  0  0  0  0  0  0  0  0  0
  -20.3748   15.9036  -31.2392 C   0  0  0  0  0  0  0  0  0  0  0  0
  -19.6129   15.8895  -29.9656 C   0  0  0  0  0  0  0  0  0  0  0  0
  -14.4535   13.9251  -26.4625 C   0  0  0  0  0  0  0  0  0  0  0  0
  -18.1838   15.2401  -28.0345 C   0  0  0  0  0  0  0  0  0  0  0  0
  -20.9721   15.6278  -26.2479 F   0  0  0  0  0  0  0  0  0  0  0  0
  -14.7826   15.4478  -29.0208 C   0  0  0  0  0  0  0  0  0  0  0  0
  -24.0459   17.6194  -27.9188 C   0  0  0  0  0  0  0  0  0  0  0  0
  -22.2004   19.3745  -28.9145 C   0  0  0  0  0  0  0  0  0  0  0  0
  -21.1595   18.6628  -29.7735 C   0  0  0  0  0  0  0  0  0  0  0  0
  1 19  1  0
  1 23  1  0
  2  8  1  0
  2 19  1  0
  2 31  1  0
  3 24  1  0
  3 26  1  0
  4 14  1  0
  4 18  1  0
  5 11  1  0
  5 22  1  0
  5 27  1  0
  6  7  1  0
  6 18  1  0
  7 15  1  0
  8 21  1  0
  8 22  1  0
  9 23  1  0
 10 22  1  0
 10 29  1  0
 10 30  1  0
 11 16  1  0
 11 19  1  0
 12 20  1  0
 12 26  1  0
 13 23  1  0
 14 21  2  0
 15 28  1  0
 16 29  1  0
 17 18  1  0
 17 25  1  0
 18 20  1  0
 20 28  1  0
 21 26  1  0
 23 24  1  0
 30 31  1  0
M  END
$$$$
