
     RDKit          3D

 20 22  0  0  0  0  0  0  0  0999 V2000
  -21.5853   17.2777  -27.6075 N   0  0  0  0  0  0  0  0  0  0  0  0
  -15.0006   17.8745  -28.0549 C   0  0  0  0  0  0  0  0  0  0  0  0
  -15.7712   16.7953  -28.6581 C   0  0  0  0  0  0  0  0  0  0  0  0
  -21.5768   17.8014  -26.3593 C   0  0  0  0  0  0  0  0  0  0  0  0
  -19.1115   15.7698  -29.9552 C   0  0  0  0  0  0  0  0  0  0  0  0
  -19.6601   16.7064  -25.9110 N   0  0  0  0  0  0  0  0  0  0  0  0
  -20.3747   16.1177  -29.3583 N   0  0  0  0  0  0  0  0  0  0  0  0
  -17.7716   15.3193  -29.4797 C   0  0  0  0  0  0  0  0  0  0  0  0
  -15.5396   15.5180  -27.8639 N   0  0  0  0  0  0  0  0  0  0  0  0
  -18.7596   15.0716  -27.3953 C   0  0  0  0  0  0  0  0  0  0  0  0
  -19.6596   16.0218  -27.0494 C   0  0  0  0  0  0  0  0  0  0  0  0
  -16.1974   13.4301  -27.1499 O   0  0  0  0  0  0  0  0  0  0  0  0
  -20.3592   15.2462  -32.0330 C   0  0  0  0  0  0  0  0  0  0  0  0
  -13.7775   17.1968  -27.3675 C   0  0  0  0  0  0  0  0  0  0  0  0
  -17.7368   14.7959  -28.1609 C   0  0  0  0  0  0  0  0  0  0  0  0
  -20.5873   16.4509  -28.0115 C   0  0  0  0  0  0  0  0  0  0  0  0
  -16.4813   14.4701  -27.5941 C   0  0  0  0  0  0  0  0  0  0  0  0
  -19.1027   15.4737  -31.4395 C   0  0  0  0  0  0  0  0  0  0  0  0
  -14.1851   15.7248  -27.0684 C   0  0  0  0  0  0  0  0  0  0  0  0
  -20.6266   17.4794  -25.4381 C   0  0  0  0  0  0  0  0  0  0  0  0
  1  4  2  0
  1 16  1  0
  2  3  1  0
  2 14  1  0
  3  9  1  0
  4 20  1  0
  5  7  1  0
  5  8  1  0
  5 18  1  0
  6 11  1  0
  6 20  1  0
  7 16  2  0
  8 15  1  0
  9 17  1  0
  9 19  1  0
 10 11  1  0
 10 15  1  0
 11 16  1  0
 12 17  2  0
 13 18  1  0
 14 19  1  0
 15 17  1  0
M  END
$$$$
