
     RDKit          3D

 15 16  0  0  0  0  0  0  0  0999 V2000
  -13.0678   -6.1865    5.9703 N   0  0  0  0  0  0  0  0  0  0  0  0
  -11.0354   -7.1498    3.3947 N   0  0  0  0  0  0  0  0  0  0  0  0
  -19.2036   -4.4436    4.3563 C   0  0  0  0  0  0  0  0  0  0  0  0
  -18.7739   -7.4364    4.2749 C   0  0  0  0  0  0  0  0  0  0  0  0
  -13.2651   -6.6431    3.8314 N   0  0  0  0  0  0  0  0  0  0  0  0
  -18.1945   -5.7558    6.3856 C   0  0  0  0  0  0  0  0  0  0  0  0
  -20.1264   -5.4391    3.5418 C   0  0  0  0  0  0  0  0  0  0  0  0
  -16.2395   -6.5329    4.0566 C   0  0  0  0  0  0  0  0  0  0  0  0
  -11.9600   -6.7483    4.1799 C   0  0  0  0  0  0  0  0  0  0  0  0
  -17.6935   -6.3264    4.0069 C   0  0  0  0  0  0  0  0  0  0  0  0
  -13.9347   -6.2946    4.9639 C   0  0  0  0  0  0  0  0  0  0  0  0
  -18.0380   -5.1643    4.9711 C   0  0  0  0  0  0  0  0  0  0  0  0
  -20.2050   -6.7261    4.4486 C   0  0  0  0  0  0  0  0  0  0  0  0
  -15.3109   -6.0608    4.9619 C   0  0  0  0  0  0  0  0  0  0  0  0
  -11.8162   -6.4365    5.4743 N   0  0  0  0  0  0  0  0  0  0  0  0
  1 11  2  0
  1 15  1  0
  2  9  2  0
  3  7  1  0
  3 12  1  0
  4 10  1  0
  4 13  1  0
  5  9  1  0
  5 11  1  0
  6 12  1  0
  7 13  1  0
  8 10  1  0
  8 14  2  3
  9 15  1  0
 10 12  1  0
 11 14  1  0
M  END
$$$$
