
     RDKit          3D

 16 17  0  0  0  0  0  0  0  0999 V2000
  -18.4612   -6.5978    3.0813 C   0  0  0  0  0  0  0  0  0  0  0  0
  -11.0074   -6.6032    5.2931 N   0  0  0  0  0  0  0  0  0  0  0  0
  -11.8651   -7.0333    3.1156 C   0  0  0  0  0  0  0  0  0  0  0  0
  -10.7751   -6.9414    4.0316 C   0  0  0  0  0  0  0  0  0  0  0  0
  -20.4692   -7.8622    4.5614 C   0  0  0  0  0  0  0  0  0  0  0  0
  -20.3358   -8.0760    3.2035 C   0  0  0  0  0  0  0  0  0  0  0  0
  -19.6068   -7.0265    5.2017 C   0  0  0  0  0  0  0  0  0  0  0  0
  -15.5638   -6.0119    4.7162 C   0  0  0  0  0  0  0  0  0  0  0  0
  -13.2253   -6.3463    4.8462 C   0  0  0  0  0  0  0  0  0  0  0  0
  -12.1622   -6.0865    5.6683 N   0  0  0  0  0  0  0  0  0  0  0  0
  -16.6421   -5.3315    5.0927 C   0  0  0  0  0  0  0  0  0  0  0  0
  -13.0538   -6.8360    3.6419 N   0  0  0  0  0  0  0  0  0  0  0  0
  -18.6339   -6.3716    4.4525 C   0  0  0  0  0  0  0  0  0  0  0  0
  -19.3636   -7.4237    2.4386 C   0  0  0  0  0  0  0  0  0  0  0  0
  -14.4471   -6.0802    5.2083 C   0  0  0  0  0  0  0  0  0  0  0  0
  -17.8994   -5.4136    5.1694 C   0  0  0  0  0  0  0  0  0  0  0  0
  1 13  1  0
  1 14  2  0
  2  4  2  0
  2 10  1  0
  3  4  1  0
  3 12  2  0
  5  6  2  0
  5  7  1  0
  6 14  1  0
  7 13  2  0
  8 11  1  0
  8 15  1  0
  9 10  1  0
  9 12  1  0
  9 15  2  3
 11 16  1  0
 13 16  1  0
M  END
$$$$
