
     RDKit          3D

 13 13  0  0  0  0  0  0  0  0999 V2000
  -13.0659   -5.9765    3.8996 O   0  0  0  0  0  0  0  0  0  0  0  0
  -17.5342   -6.4088    3.5248 C   0  0  0  0  0  0  0  0  0  0  0  0
  -14.4276   -6.1680    4.0246 C   0  0  0  0  0  0  0  0  0  0  0  0
  -19.8301   -7.0511    3.6709 C   0  0  0  0  0  0  0  0  0  0  0  0
  -17.5088   -6.2954    4.9072 C   0  0  0  0  0  0  0  0  0  0  0  0
  -12.1796   -6.7490    5.9185 O   0  0  0  0  0  0  0  0  0  0  0  0
  -12.1200   -6.5638    4.7188 C   0  0  0  0  0  0  0  0  0  0  0  0
  -15.1489   -5.2325    4.9647 C   0  0  0  0  0  0  0  0  0  0  0  0
  -19.7874   -6.9160    5.0518 C   0  0  0  0  0  0  0  0  0  0  0  0
  -10.9995   -7.1406    3.9373 C   0  0  0  0  0  0  0  0  0  0  0  0
  -16.2776   -5.9186    5.6441 C   0  0  0  0  0  0  0  0  0  0  0  0
  -18.6413   -6.5304    5.6648 C   0  0  0  0  0  0  0  0  0  0  0  0
  -18.7081   -6.7963    2.9007 C   0  0  0  0  0  0  0  0  0  0  0  0
  1  3  1  0
  1  7  1  0
  2  5  1  0
  2 13  2  0
  3  8  1  0
  4  9  2  0
  4 13  1  0
  5 11  1  0
  5 12  2  0
  6  7  2  0
  7 10  1  0
  8 11  1  0
  9 12  1  0
M  END
$$$$
