
     RDKit          3D

 12 12  0  0  0  0  0  0  0  0999 V2000
  -18.6205   -5.4837    5.5520 C   0  0  0  0  0  0  0  0  0  0  0  0
  -14.0529   -6.4300    4.2821 N   0  0  0  0  0  0  0  0  0  0  0  0
  -18.1458   -6.1655    3.3312 C   0  0  0  0  0  0  0  0  0  0  0  0
  -17.2949   -5.5966    5.8738 C   0  0  0  0  0  0  0  0  0  0  0  0
  -14.9698   -6.0959    5.2460 C   0  0  0  0  0  0  0  0  0  0  0  0
  -20.3544   -5.6286    3.9343 O   0  0  0  0  0  0  0  0  0  0  0  0
  -12.4249   -6.7040    5.9242 O   0  0  0  0  0  0  0  0  0  0  0  0
  -16.8115   -6.2867    3.6429 C   0  0  0  0  0  0  0  0  0  0  0  0
  -16.3574   -6.0080    4.9151 C   0  0  0  0  0  0  0  0  0  0  0  0
  -12.6950   -6.5651    4.7481 C   0  0  0  0  0  0  0  0  0  0  0  0
  -19.0550   -5.7553    4.2787 C   0  0  0  0  0  0  0  0  0  0  0  0
  -11.8468   -6.7231    3.7999 O   0  0  0  0  0  0  0  0  0  0  0  0
  1  4  2  0
  1 11  1  0
  2  5  2  3
  2 10  1  0
  3  8  1  0
  3 11  2  0
  4  9  1  0
  5  9  1  0
  6 11  1  0
  7 10  2  0
  8  9  2  0
 10 12  1  0
M  END
$$$$
