
     RDKit          3D

 23 23  0  0  0  0  0  0  0  0999 V2000
   23.8249   35.9898   99.9122 F   0  0  0  0  0  0  0  0  0  0  0  0
   25.0228   35.3352  101.9105 C   0  0  0  0  0  0  0  0  0  0  0  0
   31.0223   34.5621  103.5910 C   0  0  0  0  0  0  0  0  0  0  0  0
   23.7032   33.8788  107.3648 O   0  0  0  0  0  0  0  0  0  0  0  0
   29.1594   36.1128  103.6042 C   0  0  0  0  0  0  0  0  0  0  0  0
   23.2551   33.5175  105.9974 C   0  0  0  0  0  0  0  0  0  0  0  0
   30.5184   32.5205  102.5183 O   0  0  0  0  0  0  0  0  0  0  0  0
   31.3123   33.5348  102.5968 C   0  0  0  0  0  0  0  0  0  0  0  0
   25.2420   37.5071  100.9110 F   0  0  0  0  0  0  0  0  0  0  0  0
   26.9899   35.1151  103.7081 C   0  0  0  0  0  0  0  0  0  0  0  0
   29.9149   37.1609  103.6267 F   0  0  0  0  0  0  0  0  0  0  0  0
   24.7792   36.2984  100.8038 C   0  0  0  0  0  0  0  0  0  0  0  0
   25.1242   35.4495  105.9294 O   0  0  0  0  0  0  0  0  0  0  0  0
   24.7173   33.9385  104.0150 C   0  0  0  0  0  0  0  0  0  0  0  0
   32.3613   34.1673  105.4327 C   0  0  0  0  0  0  0  0  0  0  0  0
   27.8093   36.2215  103.3385 C   0  0  0  0  0  0  0  0  0  0  0  0
   25.5629   35.0767  103.2734 C   0  0  0  0  0  0  0  0  0  0  0  0
   29.6584   34.8427  103.9421 C   0  0  0  0  0  0  0  0  0  0  0  0
   27.5443   34.1028  104.4410 C   0  0  0  0  0  0  0  0  0  0  0  0
   31.8670   35.0383  104.5649 N   0  0  0  0  0  0  0  0  0  0  0  0
   24.4187   34.3610  105.4447 C   0  0  0  0  0  0  0  0  0  0  0  0
   28.8607   33.9809  104.6153 C   0  0  0  0  0  0  0  0  0  0  0  0
   32.3588   33.7637  101.8582 O   0  0  0  0  0  0  0  0  0  0  0  0
  1 12  1  0
  2 12  1  0
  2 17  1  0
  3  8  1  0
  3 18  1  0
  3 20  1  0
  4  6  1  0
  5 11  1  0
  5 16  2  0
  5 18  1  0
  6 21  1  0
  7  8  2  0
  8 23  1  0
  9 12  1  0
 10 16  1  0
 10 17  1  0
 10 19  1  0
 13 21  1  0
 14 17  1  0
 14 21  1  0
 15 20  2  0
 18 22  1  0
 19 22  2  0
M  END
$$$$
