
     RDKit          3D

 26 28  0  0  0  0  0  0  0  0999 V2000
   24.1571   34.1577  106.4546 C   0  0  0  0  0  0  0  0  0  0  0  0
   27.9385   35.0577  104.3339 C   0  0  0  0  0  0  0  0  0  0  0  0
   23.1191   36.7546   99.4918 O   0  0  0  0  0  0  0  0  0  0  0  0
   26.2853   34.9572  105.7177 C   0  0  0  0  0  0  0  0  0  0  0  0
   31.6228   34.4860  104.0683 C   0  0  0  0  0  0  0  0  0  0  0  0
   25.3311   35.4274  101.7343 C   0  0  0  0  0  0  0  0  0  0  0  0
   27.0930   33.9939  104.9504 O   0  0  0  0  0  0  0  0  0  0  0  0
   26.1112   33.3426  107.6769 O   0  0  0  0  0  0  0  0  0  0  0  0
   26.2087   36.3453  101.0181 C   0  0  0  0  0  0  0  0  0  0  0  0
   25.7137   35.1812  103.0938 C   0  0  0  0  0  0  0  0  0  0  0  0
   24.8362   34.9692  105.3528 C   0  0  0  0  0  0  0  0  0  0  0  0
   30.2457   36.5386  103.8080 O   0  0  0  0  0  0  0  0  0  0  0  0
   25.1032   34.0982  107.6687 C   0  0  0  0  0  0  0  0  0  0  0  0
   29.1798   34.5049  103.9352 N   0  0  0  0  0  0  0  0  0  0  0  0
   25.3542   37.0109  100.1304 N   0  0  0  0  0  0  0  0  0  0  0  0
   30.3568   35.2406  104.2077 C   0  0  0  0  0  0  0  0  0  0  0  0
   32.4772   33.5907  102.0351 O   0  0  0  0  0  0  0  0  0  0  0  0
   27.0703   35.6742  103.3522 C   0  0  0  0  0  0  0  0  0  0  0  0
   24.7896   34.8275  108.5988 O   0  0  0  0  0  0  0  0  0  0  0  0
   24.0699   35.3238  101.1482 C   0  0  0  0  0  0  0  0  0  0  0  0
   32.5796   34.5521  105.0389 O   0  0  0  0  0  0  0  0  0  0  0  0
   31.6307   33.3168  103.1695 C   0  0  0  0  0  0  0  0  0  0  0  0
   30.3500   32.7914  102.5927 C   0  0  0  0  0  0  0  0  0  0  0  0
   29.0809   33.3342  103.1322 C   0  0  0  0  0  0  0  0  0  0  0  0
   24.6028   34.5459  103.9441 C   0  0  0  0  0  0  0  0  0  0  0  0
   24.2048   36.2700  100.0705 N   0  0  0  0  0  0  0  0  0  0  0  0
  1 11  1  0
  1 13  1  0
  2  7  1  0
  2 14  1  0
  2 18  1  0
  3 26  1  0
  4  7  1  0
  4 11  1  0
  5 16  1  0
  5 21  1  0
  5 22  1  0
  6  9  1  0
  6 10  2  3
  6 20  1  0
  8 13  2  0
  9 15  1  0
 10 18  1  0
 10 25  1  0
 11 25  1  0
 12 16  2  0
 13 19  1  0
 14 16  1  0
 14 24  1  0
 15 26  1  0
 17 22  1  0
 20 26  1  0
 22 23  1  0
 23 24  2  0
M  END
$$$$
