
     RDKit          3D

 25 27  0  0  0  0  0  0  0  0999 V2000
   26.9011   34.8224  107.5625 O   0  0  0  0  0  0  0  0  0  0  0  0
   30.7137   36.6261  103.6818 O   0  0  0  0  0  0  0  0  0  0  0  0
   24.4903   33.5360  106.4672 C   0  0  0  0  0  0  0  0  0  0  0  0
   32.6195   34.3546  105.0292 O   0  0  0  0  0  0  0  0  0  0  0  0
   25.2069   34.1368  104.2617 C   0  0  0  0  0  0  0  0  0  0  0  0
   30.1304   34.6013  104.7353 C   0  0  0  0  0  0  0  0  0  0  0  0
   29.7676   35.7392  103.8034 C   0  0  0  0  0  0  0  0  0  0  0  0
   31.4811   33.3785  103.0785 C   0  0  0  0  0  0  0  0  0  0  0  0
   31.4611   33.9869  104.4109 C   0  0  0  0  0  0  0  0  0  0  0  0
   26.0233   35.0758  103.4179 C   0  0  0  0  0  0  0  0  0  0  0  0
   23.3601   32.6115  104.5254 C   0  0  0  0  0  0  0  0  0  0  0  0
   25.9461   37.2565  101.2104 O   0  0  0  0  0  0  0  0  0  0  0  0
   27.8220   35.1028  105.3012 C   0  0  0  0  0  0  0  0  0  0  0  0
   24.2270   33.3140  103.7191 C   0  0  0  0  0  0  0  0  0  0  0  0
   24.1912   36.2503  100.2666 N   0  0  0  0  0  0  0  0  0  0  0  0
   25.2009   36.2929  101.1710 C   0  0  0  0  0  0  0  0  0  0  0  0
   28.8166   33.9317  105.1741 C   0  0  0  0  0  0  0  0  0  0  0  0
   27.3353   35.4700  103.9012 C   0  0  0  0  0  0  0  0  0  0  0  0
   25.4308   34.1677  105.6544 C   0  0  0  0  0  0  0  0  0  0  0  0
   26.7028   34.8861  106.2081 C   0  0  0  0  0  0  0  0  0  0  0  0
   28.5071   35.9453  103.1295 C   0  0  0  0  0  0  0  0  0  0  0  0
   32.2573   33.8820  102.1184 O   0  0  0  0  0  0  0  0  0  0  0  0
   30.4137   32.6320  102.7319 O   0  0  0  0  0  0  0  0  0  0  0  0
   23.4525   32.7490  105.9165 C   0  0  0  0  0  0  0  0  0  0  0  0
   25.3996   35.1763  102.1052 C   0  0  0  0  0  0  0  0  0  0  0  0
  1 20  1  0
  2  7  1  0
  3 19  2  0
  3 24  1  0
  4  9  1  0
  5 10  1  0
  5 14  2  0
  5 19  1  0
  6  7  1  0
  6  9  1  0
  6 17  1  0
  7 21  1  0
  8  9  1  0
  8 22  2  0
  8 23  1  0
 10 18  1  0
 10 25  1  0
 11 14  1  0
 11 24  2  0
 12 16  2  0
 13 17  1  0
 13 18  1  0
 13 20  1  0
 15 16  1  0
 16 25  1  0
 18 21  1  0
 19 20  1  0
M  END
$$$$
