
     RDKit          3D

 35 39  0  0  0  0  0  0  0  0999 V2000
   25.1799   36.2737  101.0055 C   0  0  0  0  0  0  0  0  0  0  0  0
   25.6698   35.6838  102.3334 C   0  0  0  0  0  0  0  0  0  0  0  0
   24.1959   33.9057  105.3005 C   0  0  0  0  0  0  0  0  0  0  0  0
   23.1392   33.1787  104.8104 C   0  0  0  0  0  0  0  0  0  0  0  0
   24.8052   34.8912  103.0650 C   0  0  0  0  0  0  0  0  0  0  0  0
   28.5448   35.7732  105.1288 C   0  0  0  0  0  0  0  0  0  0  0  0
   27.7654   34.2872   97.5821 C   0  0  0  0  0  0  0  0  0  0  0  0
   29.7316   37.0536  103.4971 O   0  0  0  0  0  0  0  0  0  0  0  0
   25.0814   34.5773  104.4304 C   0  0  0  0  0  0  0  0  0  0  0  0
   24.3706   34.0512  106.6911 C   0  0  0  0  0  0  0  0  0  0  0  0
   23.3926   33.6040  107.5517 C   0  0  0  0  0  0  0  0  0  0  0  0
   26.2761   35.0191  105.0379 C   0  0  0  0  0  0  0  0  0  0  0  0
   23.6719   35.9731  100.5823 C   0  0  0  0  0  0  0  0  0  0  0  0
   26.5116   34.9834  106.4790 N   0  0  0  0  0  0  0  0  0  0  0  0
   22.2086   32.6816  105.6560 C   0  0  0  0  0  0  0  0  0  0  0  0
   31.4858   34.7890  103.1556 N   0  0  0  0  0  0  0  0  0  0  0  0
   32.1529   33.5357  103.6737 C   0  0  0  0  0  0  0  0  0  0  0  0
   29.0015   34.9858   96.9569 C   0  0  0  0  0  0  0  0  0  0  0  0
   31.9658   33.5650  105.0302 O   0  0  0  0  0  0  0  0  0  0  0  0
   29.0417   36.2512   96.9082 O   0  0  0  0  0  0  0  0  0  0  0  0
   29.0554   34.6650  106.0175 C   0  0  0  0  0  0  0  0  0  0  0  0
   29.5520   35.9772  104.0350 C   0  0  0  0  0  0  0  0  0  0  0  0
   26.9074   35.9628  102.9407 C   0  0  0  0  0  0  0  0  0  0  0  0
   25.3119   37.5837  101.1483 O   0  0  0  0  0  0  0  0  0  0  0  0
   30.0882   34.2154   96.8307 O   0  0  0  0  0  0  0  0  0  0  0  0
   25.6003   35.1248   98.5720 C   0  0  0  0  0  0  0  0  0  0  0  0
   30.4591   34.9278  104.0727 C   0  0  0  0  0  0  0  0  0  0  0  0
   27.2684   35.5904  104.2698 C   0  0  0  0  0  0  0  0  0  0  0  0
   31.6593   32.5234  103.0252 O   0  0  0  0  0  0  0  0  0  0  0  0
   30.3764   34.0529  105.2651 C   0  0  0  0  0  0  0  0  0  0  0  0
   25.5144   34.6649  107.2886 O   0  0  0  0  0  0  0  0  0  0  0  0
   22.3038   32.9166  107.0387 C   0  0  0  0  0  0  0  0  0  0  0  0
   26.5918   35.1818   97.5031 C   0  0  0  0  0  0  0  0  0  0  0  0
   25.9169   35.6664   99.8693 N   0  0  0  0  0  0  0  0  0  0  0  0
   23.5065   36.0724   99.2407 N   0  0  0  0  0  0  0  0  0  0  0  0
  1  2  1  0
  1 13  1  0
  1 24  1  0
  1 34  1  0
  2  5  2  0
  2 23  1  0
  3  4  2  0
  3  9  1  0
  3 10  1  0
  4 15  1  0
  5  9  1  0
  6 21  1  0
  6 22  1  0
  6 28  1  0
  7 18  1  0
  7 33  1  0
  8 22  2  0
  9 12  1  0
 10 11  2  0
 10 31  1  0
 11 32  1  0
 12 14  1  0
 12 28  2  0
 13 35  1  0
 14 31  1  0
 15 32  2  0
 16 17  1  0
 16 27  1  0
 17 19  1  0
 17 29  1  0
 18 20  2  0
 18 25  1  0
 19 30  1  0
 21 30  1  0
 22 27  1  0
 23 28  1  0
 26 33  1  0
 26 34  1  0
 27 30  1  0
M  END
$$$$
