
     RDKit          3D

 11 11  0  0  0  0  0  0  0  0999 V2000
   62.9413   50.0232  110.9027 C   0  0  0  0  0  0  0  0  0  0  0  0
   63.6468   53.1278  110.5470 C   0  0  0  0  0  0  0  0  0  0  0  0
   64.9835   55.1613  110.7922 O   0  0  0  0  0  0  0  0  0  0  0  0
   64.5781   54.1419  109.8577 C   0  0  0  0  0  0  0  0  0  0  0  0
   62.2280   53.0762  108.5227 C   0  0  0  0  0  0  0  0  0  0  0  0
   63.9858   54.7900  108.6358 C   0  0  0  0  0  0  0  0  0  0  0  0
   62.8927   52.1643  109.5720 C   0  0  0  0  0  0  0  0  0  0  0  0
   62.0636   50.9670  110.0713 C   0  0  0  0  0  0  0  0  0  0  0  0
   61.5755   50.0880  108.8879 C   0  0  0  0  0  0  0  0  0  0  0  0
   60.9843   51.4950  110.7535 O   0  0  0  0  0  0  0  0  0  0  0  0
   62.4400   54.6172  108.6712 C   0  0  0  0  0  0  0  0  0  0  0  0
  1  8  1  0
  2  4  1  0
  2  7  1  0
  3  4  1  0
  4  6  1  0
  5  7  1  0
  5 11  1  0
  6 11  1  0
  7  8  1  0
  8  9  1  0
  8 10  1  0
M  END
$$$$
