
     RDKit          3D

 10  9  0  0  0  0  0  0  0  0999 V2000
   62.6665   49.8995  110.5161 C   0  0  0  0  0  0  0  0  0  0  0  0
   61.2165   49.7998  108.5618 C   0  0  0  0  0  0  0  0  0  0  0  0
   64.2735   54.7597  110.0364 C   0  0  0  0  0  0  0  0  0  0  0  0
   62.6637   53.0643  109.0628 C   0  0  0  0  0  0  0  0  0  0  0  0
   63.6764   53.4174  110.0097 C   0  0  0  0  0  0  0  0  0  0  0  0
   62.0484   50.6700  109.4296 C   0  0  0  0  0  0  0  0  0  0  0  0
   62.2040   53.8964  108.1507 O   0  0  0  0  0  0  0  0  0  0  0  0
   65.7554   54.6769  109.7400 N   0  0  0  0  0  0  0  0  0  0  0  0
   61.9368   51.9580  109.2769 N   0  0  0  0  0  0  0  0  0  0  0  0
   64.1372   52.5026  110.8924 O   0  0  0  0  0  0  0  0  0  0  0  0
  1  6  1  0
  2  6  1  0
  3  5  1  0
  3  8  1  0
  4  5  1  0
  4  7  2  0
  4  9  1  0
  5 10  1  0
  6  9  1  0
M  END
$$$$
