
     RDKit          3D

  9 10  0  0  0  0  0  0  0  0999 V2000
   64.6555   55.1107  108.8283 C   0  0  0  0  0  0  0  0  0  0  0  0
   65.0371   54.2133  109.8469 N   0  0  0  0  0  0  0  0  0  0  0  0
   62.0793   51.5154  110.1464 C   0  0  0  0  0  0  0  0  0  0  0  0
   63.4964   54.4348  108.1948 C   0  0  0  0  0  0  0  0  0  0  0  0
   62.9255   53.4760  109.1304 C   0  0  0  0  0  0  0  0  0  0  0  0
   64.0028   53.1603  110.1602 C   0  0  0  0  0  0  0  0  0  0  0  0
   61.7920   52.7055  109.4071 N   0  0  0  0  0  0  0  0  0  0  0  0
   61.8420   50.3108  109.2901 C   0  0  0  0  0  0  0  0  0  0  0  0
   63.4676   51.7569  110.6728 C   0  0  0  0  0  0  0  0  0  0  0  0
  1  2  1  0
  1  4  1  0
  2  6  1  0
  3  7  1  0
  3  8  1  0
  3  9  1  0
  4  5  1  0
  5  6  1  0
  5  7  1  0
  6  9  1  0
M  END
$$$$
