
     RDKit          3D

 31 33  0  0  0  0  0  0  0  0999 V2000
  105.0523    1.5161  -94.0772 N   0  0  0  0  0  0  0  0  0  0  0  0
  102.4636    1.3502  -94.0472 C   0  0  0  0  0  0  0  0  0  0  0  0
  104.5007    6.0559  -89.3102 C   0  0  0  0  0  0  0  0  0  0  0  0
   99.1583    8.4959  -90.9408 C   0  0  0  0  0  0  0  0  0  0  0  0
  105.5484    6.7207  -89.5139 O   0  0  0  0  0  0  0  0  0  0  0  0
  102.9975    7.4505  -90.9513 C   0  0  0  0  0  0  0  0  0  0  0  0
  103.0453    5.9976  -91.3046 C   0  0  0  0  0  0  0  0  0  0  0  0
  103.8818    5.9135  -88.2042 O   0  0  0  0  0  0  0  0  0  0  0  0
  105.4866    2.0716  -90.6991 O   0  0  0  0  0  0  0  0  0  0  0  0
  105.1816    2.1546  -91.9152 C   0  0  0  0  0  0  0  0  0  0  0  0
  101.4767    2.3882  -93.8036 N   0  0  0  0  0  0  0  0  0  0  0  0
   98.7414    6.0468  -89.9901 N   0  0  0  0  0  0  0  0  0  0  0  0
  103.7851    1.7113  -93.6077 C   0  0  0  0  0  0  0  0  0  0  0  0
  101.7276    8.2253  -90.8362 C   0  0  0  0  0  0  0  0  0  0  0  0
  101.8511    9.6387  -91.2086 C   0  0  0  0  0  0  0  0  0  0  0  0
  103.8538    2.4041  -92.4003 C   0  0  0  0  0  0  0  0  0  0  0  0
  102.7798    3.2192  -91.8979 C   0  0  0  0  0  0  0  0  0  0  0  0
  102.2086    5.6949  -92.4427 N   0  0  0  0  0  0  0  0  0  0  0  0
   97.8721    5.9877  -91.1586 C   0  0  0  0  0  0  0  0  0  0  0  0
  102.9718   10.1015  -91.5607 O   0  0  0  0  0  0  0  0  0  0  0  0
  102.0449    0.1277  -93.8064 O   0  0  0  0  0  0  0  0  0  0  0  0
   98.3405    4.8870  -90.4617 C   0  0  0  0  0  0  0  0  0  0  0  0
   99.3417    9.9521  -90.9806 C   0  0  0  0  0  0  0  0  0  0  0  0
   98.6065    3.8104  -90.0858 O   0  0  0  0  0  0  0  0  0  0  0  0
  100.7212   10.4066  -91.0027 N   0  0  0  0  0  0  0  0  0  0  0  0
  101.6687    3.3676  -92.7784 C   0  0  0  0  0  0  0  0  0  0  0  0
  101.1880    4.7615  -93.0321 C   0  0  0  0  0  0  0  0  0  0  0  0
  103.9672    5.1751  -90.4492 C   0  0  0  0  0  0  0  0  0  0  0  0
  100.1079    6.4568  -89.9965 C   0  0  0  0  0  0  0  0  0  0  0  0
  100.3795    7.8369  -90.4859 N   0  0  0  0  0  0  0  0  0  0  0  0
  105.9507    1.8449  -93.0153 N   0  0  0  0  0  0  0  0  0  0  0  0
  1 13  1  0
  1 31  1  0
  2 11  1  0
  2 13  1  0
  2 21  2  0
  3  5  2  0
  3  8  1  0
  3 28  1  0
  4 23  1  0
  4 30  1  0
  6  7  1  0
  6 14  1  0
  7 18  1  0
  7 28  1  0
  9 10  2  0
 10 16  1  0
 10 31  1  0
 11 26  1  0
 12 22  1  0
 12 29  1  0
 13 16  1  0
 14 15  1  0
 14 30  1  0
 15 20  2  0
 15 25  1  0
 16 17  2  0
 17 26  1  0
 18 27  1  0
 19 22  1  0
 22 24  2  0
 23 25  2  0
 26 27  1  0
 29 30  1  0
M  END
$$$$
