
     RDKit          3D

 29 31  0  0  0  0  0  0  0  0999 V2000
   97.0981    5.9977  -89.4353 C   0  0  0  0  0  0  0  0  0  0  0  0
  101.6511    4.3649  -91.7406 C   0  0  0  0  0  0  0  0  0  0  0  0
   98.0495    6.6508  -90.2038 C   0  0  0  0  0  0  0  0  0  0  0  0
   96.0500    6.6393  -88.8377 C   0  0  0  0  0  0  0  0  0  0  0  0
   98.9034    8.7958  -90.7935 N   0  0  0  0  0  0  0  0  0  0  0  0
   96.9054    8.6851  -89.6737 C   0  0  0  0  0  0  0  0  0  0  0  0
   97.9813    8.0199  -90.2358 C   0  0  0  0  0  0  0  0  0  0  0  0
  105.9909    2.5776  -91.6541 C   0  0  0  0  0  0  0  0  0  0  0  0
   95.9562    8.0195  -88.9782 C   0  0  0  0  0  0  0  0  0  0  0  0
  103.7441    6.7741  -90.7975 C   0  0  0  0  0  0  0  0  0  0  0  0
  103.7663    5.3686  -90.7828 N   0  0  0  0  0  0  0  0  0  0  0  0
  102.8528    7.8924  -91.0667 C   0  0  0  0  0  0  0  0  0  0  0  0
   99.2803   11.1848  -91.5479 C   0  0  0  0  0  0  0  0  0  0  0  0
  101.0802    9.4623  -91.0781 C   0  0  0  0  0  0  0  0  0  0  0  0
   98.9756    5.8712  -90.8936 N   0  0  0  0  0  0  0  0  0  0  0  0
   99.4320    3.8776  -89.8342 O   0  0  0  0  0  0  0  0  0  0  0  0
  102.9054    3.7823  -92.3175 C   0  0  0  0  0  0  0  0  0  0  0  0
  100.1877    4.0936  -92.1152 C   0  0  0  0  0  0  0  0  0  0  0  0
  105.1282    1.6669  -91.0200 O   0  0  0  0  0  0  0  0  0  0  0  0
  104.0668    4.0661  -91.3773 C   0  0  0  0  0  0  0  0  0  0  0  0
  105.4200    3.9407  -91.9645 C   0  0  0  0  0  0  0  0  0  0  0  0
  100.2387    3.0532  -93.1700 O   0  0  0  0  0  0  0  0  0  0  0  0
  103.4969    8.9906  -91.5886 O   0  0  0  0  0  0  0  0  0  0  0  0
  101.3872    2.9983  -94.1699 C   0  0  0  0  0  0  0  0  0  0  0  0
  101.5549    8.1988  -90.8421 C   0  0  0  0  0  0  0  0  0  0  0  0
   99.3249    4.5653  -90.8744 C   0  0  0  0  0  0  0  0  0  0  0  0
  102.6018    2.6330  -93.2733 C   0  0  0  0  0  0  0  0  0  0  0  0
  104.9575    7.1771  -90.4219 O   0  0  0  0  0  0  0  0  0  0  0  0
   99.7247    9.7614  -91.0713 C   0  0  0  0  0  0  0  0  0  0  0  0
  1  3  2  0
  1  4  1  0
  2 17  1  0
  2 18  2  0
  3  7  1  0
  3 15  1  0
  4  9  2  0
  5  7  1  0
  5 29  1  0
  6  7  2  0
  6  9  1  0
  8 19  1  0
  8 21  1  0
 10 11  1  0
 10 12  1  0
 10 28  2  0
 11 20  1  0
 12 23  1  0
 12 25  2  3
 13 29  1  0
 14 25  1  0
 14 29  2  3
 15 26  1  0
 16 26  2  0
 17 20  1  0
 17 27  1  0
 18 22  1  0
 18 26  1  0
 20 21  1  0
 22 24  1  0
 24 27  1  0
M  END
$$$$
