
     RDKit          3D

 36 38  0  0  0  0  0  0  0  0999 V2000
  100.6119    7.0619  -91.4803 C   0  0  0  0  0  0  0  0  0  0  0  0
  102.1055    3.4407  -92.4564 C   0  0  0  0  0  0  0  0  0  0  0  0
  105.3024    1.8474  -94.7927 O   0  0  0  0  0  0  0  0  0  0  0  0
   99.2051    7.1703  -91.2613 C   0  0  0  0  0  0  0  0  0  0  0  0
  100.9797    4.6698  -87.4689 C   0  0  0  0  0  0  0  0  0  0  0  0
  104.4873    9.8477  -91.7520 C   0  0  0  0  0  0  0  0  0  0  0  0
  106.8682    7.1168  -89.0088 C   0  0  0  0  0  0  0  0  0  0  0  0
  101.2535    5.7469  -91.6933 C   0  0  0  0  0  0  0  0  0  0  0  0
  104.9425    1.4825  -93.4794 C   0  0  0  0  0  0  0  0  0  0  0  0
  102.8301    0.2949  -91.6498 O   0  0  0  0  0  0  0  0  0  0  0  0
  102.2607    5.5020  -90.7225 N   0  0  0  0  0  0  0  0  0  0  0  0
  105.1677    7.5935  -91.1493 N   0  0  0  0  0  0  0  0  0  0  0  0
   98.7407   11.1309  -91.5605 Cl  0  0  0  0  0  0  0  0  0  0  0  0
   97.8499    5.0884  -90.4590 C   0  0  0  0  0  0  0  0  0  0  0  0
  101.4080    8.2018  -91.4627 C   0  0  0  0  0  0  0  0  0  0  0  0
   98.7318    4.0892  -88.3358 C   0  0  0  0  0  0  0  0  0  0  0  0
   98.3272    6.0939  -91.0860 C   0  0  0  0  0  0  0  0  0  0  0  0
  103.3672    3.3059  -93.2179 C   0  0  0  0  0  0  0  0  0  0  0  0
  107.0906    8.1728  -89.9363 N   0  0  0  0  0  0  0  0  0  0  0  0
  105.8176    9.7529  -91.1599 O   0  0  0  0  0  0  0  0  0  0  0  0
  101.3667    4.7252  -92.7590 C   0  0  0  0  0  0  0  0  0  0  0  0
  103.0241    5.6672  -88.2094 C   0  0  0  0  0  0  0  0  0  0  0  0
   98.6556    8.4644  -91.2173 C   0  0  0  0  0  0  0  0  0  0  0  0
  100.8925    9.4774  -91.3691 C   0  0  0  0  0  0  0  0  0  0  0  0
  105.2653    5.4156  -91.7151 O   0  0  0  0  0  0  0  0  0  0  0  0
   97.9706    4.3440  -89.3523 C   0  0  0  0  0  0  0  0  0  0  0  0
  106.0923    6.0190  -89.5727 C   0  0  0  0  0  0  0  0  0  0  0  0
  105.4411    6.2955  -90.7984 C   0  0  0  0  0  0  0  0  0  0  0  0
   99.5047    9.5710  -91.3356 C   0  0  0  0  0  0  0  0  0  0  0  0
  103.6891    1.9747  -92.9968 N   0  0  0  0  0  0  0  0  0  0  0  0
  106.1371    8.5090  -90.8165 C   0  0  0  0  0  0  0  0  0  0  0  0
  102.1038    5.1637  -87.4597 C   0  0  0  0  0  0  0  0  0  0  0  0
  101.5739    2.1618  -92.3299 O   0  0  0  0  0  0  0  0  0  0  0  0
   99.8438    4.2487  -87.7448 C   0  0  0  0  0  0  0  0  0  0  0  0
  103.1011    5.8484  -89.6155 C   0  0  0  0  0  0  0  0  0  0  0  0
  102.6505    1.3194  -92.4110 C   0  0  0  0  0  0  0  0  0  0  0  0
  1  4  2  0
  1  8  1  0
  1 15  1  0
  2 18  1  0
  2 21  1  0
  2 33  1  0
  3  9  1  0
  4 17  1  0
  4 23  1  0
  5 32  1  0
  5 34  3  0
  6 20  1  0
  7 19  1  0
  7 27  1  0
  8 11  2  3
  8 21  1  0
  9 30  1  0
 10 36  2  0
 11 35  1  0
 12 28  1  0
 12 31  2  0
 13 29  1  0
 14 17  2  3
 14 26  1  0
 15 24  2  0
 16 26  2  3
 16 34  1  0
 18 30  1  0
 19 31  1  0
 20 31  1  0
 22 32  2  3
 22 35  1  0
 23 29  2  0
 24 29  1  0
 25 28  2  0
 27 28  1  0
 30 36  1  0
 33 36  1  0
M  END
$$$$
