
     RDKit          3D

 21 23  0  0  0  0  0  0  0  0999 V2000
  -17.2377   -5.7020    5.8490 C   0  0  0  0  0  0  0  0  0  0  0  0
  -20.7253   -6.6871    5.7143 N   0  0  0  0  0  0  0  0  0  0  0  0
  -19.6581   -8.0873    3.5019 C   0  0  0  0  0  0  0  0  0  0  0  0
  -18.9029   -7.1366    4.2826 C   0  0  0  0  0  0  0  0  0  0  0  0
  -17.7001   -6.8276    3.8918 C   0  0  0  0  0  0  0  0  0  0  0  0
  -21.3510   -5.9890    6.7399 C   0  0  0  0  0  0  0  0  0  0  0  0
  -20.9386   -8.4556    4.0570 C   0  0  0  0  0  0  0  0  0  0  0  0
  -14.3280   -6.1702    4.6637 C   0  0  0  0  0  0  0  0  0  0  0  0
  -11.9315   -6.5297    4.9395 C   0  0  0  0  0  0  0  0  0  0  0  0
  -12.4677   -6.0591    5.9262 N   0  0  0  0  0  0  0  0  0  0  0  0
  -15.5205   -6.0748    4.1552 N   0  0  0  0  0  0  0  0  0  0  0  0
  -20.7039   -9.0320    1.5208 C   0  0  0  0  0  0  0  0  0  0  0  0
  -13.1784   -6.7211    3.9203 C   0  0  0  0  0  0  0  0  0  0  0  0
  -19.3779   -6.5630    5.4453 C   0  0  0  0  0  0  0  0  0  0  0  0
  -18.5310   -5.8581    6.2553 C   0  0  0  0  0  0  0  0  0  0  0  0
  -10.6043   -6.8392    4.7618 O   0  0  0  0  0  0  0  0  0  0  0  0
  -19.6283   -8.0110    2.0355 C   0  0  0  0  0  0  0  0  0  0  0  0
  -10.2918   -7.5263    3.6883 C   0  0  0  0  0  0  0  0  0  0  0  0
  -13.7481   -5.6968    5.6961 N   0  0  0  0  0  0  0  0  0  0  0  0
  -16.7988   -6.1951    4.6429 C   0  0  0  0  0  0  0  0  0  0  0  0
  -21.5936   -7.2904    4.7670 C   0  0  0  0  0  0  0  0  0  0  0  0
  1 15  2  0
  1 20  1  0
  2  6  1  0
  2 14  1  0
  2 21  1  0
  3  4  1  0
  3  7  1  0
  3 17  1  0
  4  5  1  0
  4 14  2  0
  5 20  2  0
  7 21  1  0
  8 11  1  0
  8 13  1  0
  8 19  2  0
  9 10  1  0
  9 13  1  0
  9 16  1  0
 10 19  1  0
 11 20  1  0
 12 17  1  0
 14 15  1  0
 16 18  1  0
M  END
$$$$
