
     RDKit          3D

 11 11  0  0  0  0  0  0  0  0999 V2000
  -18.7841   -6.0986    3.3133 C   0  0  0  0  0  0  0  0  0  0  0  0
  -19.3748   -6.6653    4.4506 N   0  0  0  0  0  0  0  0  0  0  0  0
  -14.8929   -6.0010    4.5190 C   0  0  0  0  0  0  0  0  0  0  0  0
  -15.9197   -6.6145    5.3197 O   0  0  0  0  0  0  0  0  0  0  0  0
  -12.3511   -6.6417    4.8436 C   0  0  0  0  0  0  0  0  0  0  0  0
  -13.6627   -6.1318    5.3043 C   0  0  0  0  0  0  0  0  0  0  0  0
  -11.7069   -7.1144    5.7393 O   0  0  0  0  0  0  0  0  0  0  0  0
  -12.0666   -6.7163    3.6751 O   0  0  0  0  0  0  0  0  0  0  0  0
  -17.1734   -6.4804    4.7797 C   0  0  0  0  0  0  0  0  0  0  0  0
  -18.3493   -6.8561    5.3914 O   0  0  0  0  0  0  0  0  0  0  0  0
  -17.4199   -5.9872    3.5568 C   0  0  0  0  0  0  0  0  0  0  0  0
  1  2  1  0
  1 11  1  0
  2 10  1  0
  3  4  1  0
  3  6  1  0
  4  9  1  0
  5  6  1  0
  5  7  2  0
  5  8  1  0
  9 10  1  0
  9 11  1  0
M  END
$$$$
