
     RDKit          3D

 16 18  0  0  0  0  0  0  0  0999 V2000
  -18.2719   -6.8278    2.9011 C   0  0  0  0  0  0  0  0  0  0  0  0
  -10.8481   -6.7309    5.1184 N   0  0  0  0  0  0  0  0  0  0  0  0
  -11.9420   -6.8680    3.6425 C   0  0  0  0  0  0  0  0  0  0  0  0
  -10.7993   -7.0707    3.9417 C   0  0  0  0  0  0  0  0  0  0  0  0
  -20.1635   -7.6369    4.6386 C   0  0  0  0  0  0  0  0  0  0  0  0
  -20.3473   -7.8584    3.2960 C   0  0  0  0  0  0  0  0  0  0  0  0
  -19.0287   -7.0409    5.0719 C   0  0  0  0  0  0  0  0  0  0  0  0
  -15.5123   -6.5293    4.0253 C   0  0  0  0  0  0  0  0  0  0  0  0
  -14.9311   -5.6642    6.0667 N   0  0  0  0  0  0  0  0  0  0  0  0
  -12.0286   -6.2902    5.6093 N   0  0  0  0  0  0  0  0  0  0  0  0
  -16.3798   -5.7049    5.8004 C   0  0  0  0  0  0  0  0  0  0  0  0
  -12.9606   -6.6475    4.6358 N   0  0  0  0  0  0  0  0  0  0  0  0
  -18.0226   -6.6935    4.2146 C   0  0  0  0  0  0  0  0  0  0  0  0
  -19.3897   -7.3971    2.4000 C   0  0  0  0  0  0  0  0  0  0  0  0
  -14.3926   -6.2861    4.7492 C   0  0  0  0  0  0  0  0  0  0  0  0
  -16.6988   -6.2662    4.6536 C   0  0  0  0  0  0  0  0  0  0  0  0
  1 13  1  0
  1 14  2  0
  2  4  1  0
  2 10  1  0
  3  4  1  0
  3 12  1  0
  5  6  2  0
  5  7  1  0
  6 14  1  0
  7 13  2  0
  8 15  1  0
  8 16  2  0
  9 11  1  0
  9 15  2  0
 10 12  1  0
 11 16  1  0
 12 15  1  0
 13 16  1  0
M  END
$$$$
