
     RDKit          3D

 28 29  0  0  0  0  0  0  0  0999 V2000
  -11.2114   -6.7121    4.1882 C   0  0  0  0  0  0  0  0  0  0  0  0
  -18.2985   -5.5471    5.2840 C   0  0  0  0  0  0  0  0  0  0  0  0
  -12.1946   -2.5047   -0.4562 C   0  0  0  0  0  0  0  0  0  0  0  0
  -22.2194   -5.5624    5.3872 O   0  0  0  0  0  0  0  0  0  0  0  0
  -12.1570   -7.1536    6.2578 O   0  0  0  0  0  0  0  0  0  0  0  0
  -19.2887   -5.6934    6.3922 C   0  0  0  0  0  0  0  0  0  0  0  0
  -11.7372   -6.1140    1.8002 O   0  0  0  0  0  0  0  0  0  0  0  0
  -11.8941   -1.6142   -1.5195 O   0  0  0  0  0  0  0  0  0  0  0  0
  -18.3639   -4.3520    4.5678 F   0  0  0  0  0  0  0  0  0  0  0  0
  -19.3870   -6.8154    3.4103 C   0  0  0  0  0  0  0  0  0  0  0  0
  -11.7023   -2.3724   -2.7177 C   0  0  0  0  0  0  0  0  0  0  0  0
  -20.2205   -6.7751    6.0110 C   0  0  0  0  0  0  0  0  0  0  0  0
  -12.1854   -3.8350   -2.4214 C   0  0  0  0  0  0  0  0  0  0  0  0
   -9.9930   -7.0829    4.5658 O   0  0  0  0  0  0  0  0  0  0  0  0
  -16.9529   -6.6500    3.9048 C   0  0  0  0  0  0  0  0  0  0  0  0
  -21.1917   -6.2459    4.9865 C   0  0  0  0  0  0  0  0  0  0  0  0
  -12.1955   -6.4145    5.2449 C   0  0  0  0  0  0  0  0  0  0  0  0
  -18.2916   -6.6202    4.2768 N   0  0  0  0  0  0  0  0  0  0  0  0
  -14.9785   -7.1024    5.9024 O   0  0  0  0  0  0  0  0  0  0  0  0
  -19.2723   -7.6363    2.4189 O   0  0  0  0  0  0  0  0  0  0  0  0
  -17.0046   -5.7506    5.9894 C   0  0  0  0  0  0  0  0  0  0  0  0
  -11.6997   -7.1851    3.0310 C   0  0  0  0  0  0  0  0  0  0  0  0
  -21.8171   -6.3748    2.6760 O   0  0  0  0  0  0  0  0  0  0  0  0
  -13.6518   -6.2326    5.0463 C   0  0  0  0  0  0  0  0  0  0  0  0
  -20.7510   -6.1093    3.5577 C   0  0  0  0  0  0  0  0  0  0  0  0
  -16.0434   -6.4396    5.0976 C   0  0  0  0  0  0  0  0  0  0  0  0
  -14.9065   -5.5326    4.6933 C   0  0  0  0  0  0  0  0  0  0  0  0
  -12.2540   -3.8437   -0.9587 C   0  0  0  0  0  0  0  0  0  0  0  0
  1 14  1  0
  1 17  1  0
  1 22  1  0
  2  6  1  0
  2  9  1  0
  2 18  1  0
  2 21  1  0
  3  8  1  0
  3 28  1  0
  4 16  1  0
  5 17  1  0
  6 12  1  0
  7 22  1  0
  8 11  1  0
 10 18  1  0
 10 20  2  0
 10 25  1  0
 11 13  1  0
 12 16  1  0
 13 28  1  0
 15 18  1  0
 15 26  1  0
 16 25  1  0
 17 24  1  0
 19 26  1  0
 21 26  1  0
 23 25  1  0
 24 27  1  0
 26 27  1  0
M  END
$$$$
