
     RDKit          3D

 13 13  0  0  0  0  0  0  0  0999 V2000
  -11.7713   -6.3544    4.1895 O   0  0  0  0  0  0  0  0  0  0  0  0
  -17.5209   -6.4189    3.4756 C   0  0  0  0  0  0  0  0  0  0  0  0
  -14.2363   -6.1994    4.3084 C   0  0  0  0  0  0  0  0  0  0  0  0
  -19.7737   -7.1508    3.6322 C   0  0  0  0  0  0  0  0  0  0  0  0
  -17.4889   -6.3708    4.8648 C   0  0  0  0  0  0  0  0  0  0  0  0
  -12.8322   -6.9149    6.0268 O   0  0  0  0  0  0  0  0  0  0  0  0
  -12.9667   -6.5090    4.9709 C   0  0  0  0  0  0  0  0  0  0  0  0
  -15.2331   -5.3020    4.8312 C   0  0  0  0  0  0  0  0  0  0  0  0
  -19.7396   -7.0441    5.0030 C   0  0  0  0  0  0  0  0  0  0  0  0
  -11.0505   -7.3170    3.8169 C   0  0  0  0  0  0  0  0  0  0  0  0
  -16.2357   -6.0544    5.5704 C   0  0  0  0  0  0  0  0  0  0  0  0
  -18.6096   -6.6218    5.6294 C   0  0  0  0  0  0  0  0  0  0  0  0
  -18.6687   -6.8364    2.8524 C   0  0  0  0  0  0  0  0  0  0  0  0
  1  7  1  0
  1 10  1  0
  2  5  1  0
  2 13  2  0
  3  7  1  0
  3  8  1  0
  4  9  1  0
  4 13  1  0
  5 11  1  0
  5 12  1  0
  6  7  2  0
  8 11  1  0
  9 12  2  0
M  END
$$$$
