
     RDKit          3D

 27 29  0  0  0  0  0  0  0  0999 V2000
  -17.8054   -5.4551    4.6557 C   0  0  0  0  0  0  0  0  0  0  0  0
  -13.0874   -6.4390    4.0286 N   0  0  0  0  0  0  0  0  0  0  0  0
  -19.6045   -7.4578    1.6001 C   0  0  0  0  0  0  0  0  0  0  0  0
  -22.8911   -9.0080    2.9444 C   0  0  0  0  0  0  0  0  0  0  0  0
  -16.6093   -6.3190    4.7462 C   0  0  0  0  0  0  0  0  0  0  0  0
  -24.2131   -6.5240    0.7672 O   0  0  0  0  0  0  0  0  0  0  0  0
  -14.0360   -6.8484    5.7446 C   0  0  0  0  0  0  0  0  0  0  0  0
  -24.1625   -7.6706    1.4701 C   0  0  0  0  0  0  0  0  0  0  0  0
  -19.8309   -5.1663    6.1177 C   0  0  0  0  0  0  0  0  0  0  0  0
  -22.8001   -8.0841    1.7465 C   0  0  0  0  0  0  0  0  0  0  0  0
  -14.2886   -6.3458    4.5838 C   0  0  0  0  0  0  0  0  0  0  0  0
  -25.0305   -8.4397    2.1335 O   0  0  0  0  0  0  0  0  0  0  0  0
  -24.3586   -9.0924    3.2296 C   0  0  0  0  0  0  0  0  0  0  0  0
  -15.4802   -5.9083    4.0654 C   0  0  0  0  0  0  0  0  0  0  0  0
  -19.0540   -7.5907    4.4959 C   0  0  0  0  0  0  0  0  0  0  0  0
  -22.0858  -10.0521    3.6888 C   0  0  0  0  0  0  0  0  0  0  0  0
  -10.7196   -6.8169    4.7222 O   0  0  0  0  0  0  0  0  0  0  0  0
  -18.4239   -5.2806    6.0257 C   0  0  0  0  0  0  0  0  0  0  0  0
  -23.5435   -6.6985   -0.5070 C   0  0  0  0  0  0  0  0  0  0  0  0
  -20.8066   -5.4122    5.0181 C   0  0  0  0  0  0  0  0  0  0  0  0
  -12.6795   -6.8314    5.9836 N   0  0  0  0  0  0  0  0  0  0  0  0
  -20.3610   -8.0988    4.0051 C   0  0  0  0  0  0  0  0  0  0  0  0
  -20.0822   -5.3567    3.6680 C   0  0  0  0  0  0  0  0  0  0  0  0
  -20.7231   -7.5707    2.6444 C   0  0  0  0  0  0  0  0  0  0  0  0
  -12.0542   -6.6500    4.8853 C   0  0  0  0  0  0  0  0  0  0  0  0
  -18.8036   -6.2356    3.8558 C   0  0  0  0  0  0  0  0  0  0  0  0
  -21.9699   -6.8654    2.1729 C   0  0  0  0  0  0  0  0  0  0  0  0
  1  5  1  0
  1 18  1  0
  1 26  1  0
  2 11  1  0
  2 25  1  0
  3 24  1  0
  4 10  1  0
  4 13  1  0
  4 16  1  0
  5 14  1  0
  6  8  1  0
  6 19  1  0
  7 11  1  0
  7 21  1  0
  8 10  1  0
  8 12  1  0
  9 18  2  0
  9 20  1  0
 10 27  1  0
 11 14  1  0
 12 13  1  0
 15 22  1  0
 15 26  1  0
 17 25  2  0
 20 23  1  0
 21 25  1  0
 22 24  1  0
 23 26  1  0
 24 27  1  0
M  END
$$$$
