
     RDKit          3D

 12 11  0  0  0  0  0  0  0  0999 V2000
  -14.6587   -5.7641    4.2606 N   0  0  0  0  0  0  0  0  0  0  0  0
  -15.9295   -5.3824    4.4621 C   0  0  0  0  0  0  0  0  0  0  0  0
  -14.4653   -7.2421    5.9808 O   0  0  0  0  0  0  0  0  0  0  0  0
  -12.4437   -6.4019    5.1094 S   0  0  0  0  0  0  0  0  0  0  0  0
  -19.1329   -6.5017    4.1936 C   0  0  0  0  0  0  0  0  0  0  0  0
  -20.3482   -6.5926    3.3762 C   0  0  0  0  0  0  0  0  0  0  0  0
  -13.9496   -6.5057    5.1010 C   0  0  0  0  0  0  0  0  0  0  0  0
  -11.6176   -7.0066    3.9540 C   0  0  0  0  0  0  0  0  0  0  0  0
  -18.9953   -6.5144    5.6450 C   0  0  0  0  0  0  0  0  0  0  0  0
  -17.8900   -6.4100    3.4155 C   0  0  0  0  0  0  0  0  0  0  0  0
  -20.2991   -5.6319    2.3538 O   0  0  0  0  0  0  0  0  0  0  0  0
  -16.7581   -6.6641    4.3803 C   0  0  0  0  0  0  0  0  0  0  0  0
  1  2  1  0
  1  7  1  0
  2 12  1  0
  3  7  2  0
  4  7  1  0
  4  8  1  0
  5  6  1  0
  5  9  1  0
  5 10  1  0
  6 11  1  0
 10 12  1  0
M  END
$$$$
