
     RDKit          3D

 14 14  0  0  0  0  0  0  0  0999 V2000
  -10.5926   -7.4566    4.2414 O   0  0  0  0  0  0  0  0  0  0  0  0
  -12.1392   -6.6483    2.9905 O   0  0  0  0  0  0  0  0  0  0  0  0
  -18.3255   -6.7757    3.4767 C   0  0  0  0  0  0  0  0  0  0  0  0
  -19.3425   -6.6699    5.7105 C   0  0  0  0  0  0  0  0  0  0  0  0
  -17.0750   -6.3508    3.5746 C   0  0  0  0  0  0  0  0  0  0  0  0
  -17.0571   -5.9341    5.9162 C   0  0  0  0  0  0  0  0  0  0  0  0
  -16.3797   -5.9998    4.7121 C   0  0  0  0  0  0  0  0  0  0  0  0
  -13.9366   -6.5863    4.8751 C   0  0  0  0  0  0  0  0  0  0  0  0
  -14.9612   -5.6389    4.6304 C   0  0  0  0  0  0  0  0  0  0  0  0
  -18.2264   -6.1757    6.3484 C   0  0  0  0  0  0  0  0  0  0  0  0
  -19.3222   -6.9558    4.3701 C   0  0  0  0  0  0  0  0  0  0  0  0
  -12.1421   -7.1439    6.1464 N   0  0  0  0  0  0  0  0  0  0  0  0
  -12.4811   -6.3709    5.1999 C   0  0  0  0  0  0  0  0  0  0  0  0
  -11.5800   -6.8197    3.9826 C   0  0  0  0  0  0  0  0  0  0  0  0
  1 14  2  0
  2 14  1  0
  3  5  2  0
  3 11  1  0
  4 10  1  0
  4 11  2  0
  5  7  1  0
  6  7  1  0
  6 10  2  0
  7  9  1  0
  8  9  2  3
  8 13  1  0
 12 13  1  0
 13 14  1  0
M  END
$$$$
