
     RDKit          3D

  9  8  0  0  0  0  0  0  0  0999 V2000
  -14.5972   -5.9312    4.7075 C   0  0  0  0  0  0  0  0  0  0  0  0
  -18.8519   -5.7026    4.0427 C   0  0  0  0  0  0  0  0  0  0  0  0
  -12.4215   -6.7253    3.9380 O   0  0  0  0  0  0  0  0  0  0  0  0
  -16.9337   -6.0186    5.6027 C   0  0  0  0  0  0  0  0  0  0  0  0
  -13.1808   -6.5356    4.9875 C   0  0  0  0  0  0  0  0  0  0  0  0
  -17.3860   -5.2971    4.2905 C   0  0  0  0  0  0  0  0  0  0  0  0
  -18.9605   -7.2167    4.5429 C   0  0  0  0  0  0  0  0  0  0  0  0
  -12.7725   -6.8467    6.0298 O   0  0  0  0  0  0  0  0  0  0  0  0
  -15.6544   -6.7747    5.3051 C   0  0  0  0  0  0  0  0  0  0  0  0
  1  5  1  0
  1  9  1  0
  2  6  1  0
  2  7  1  0
  3  5  2  0
  4  6  1  0
  4  9  1  0
  5  8  1  0
M  END
$$$$
