
     RDKit          3D

 35 38  0  0  0  0  0  0  0  0999 V2000
   25.4204   36.5093  101.0736 C   0  0  0  0  0  0  0  0  0  0  0  0
   26.5514   36.3015  101.9100 O   0  0  0  0  0  0  0  0  0  0  0  0
   23.8994   33.6822  105.1051 C   0  0  0  0  0  0  0  0  0  0  0  0
   22.8244   32.9720  104.6480 C   0  0  0  0  0  0  0  0  0  0  0  0
   25.0838   34.7682  103.0080 C   0  0  0  0  0  0  0  0  0  0  0  0
   28.3090   35.5643  104.9055 C   0  0  0  0  0  0  0  0  0  0  0  0
   27.6846   34.1923   97.2245 C   0  0  0  0  0  0  0  0  0  0  0  0
   29.5473   36.9702  103.4693 O   0  0  0  0  0  0  0  0  0  0  0  0
   24.8410   34.3058  104.3270 C   0  0  0  0  0  0  0  0  0  0  0  0
   24.1283   33.9210  106.5072 C   0  0  0  0  0  0  0  0  0  0  0  0
   23.1432   33.5789  107.3696 C   0  0  0  0  0  0  0  0  0  0  0  0
   25.9750   34.8122  105.2188 C   0  0  0  0  0  0  0  0  0  0  0  0
   24.2265   35.8949   99.0598 C   0  0  0  0  0  0  0  0  0  0  0  0
   25.4741   34.5866  106.6082 C   0  0  0  0  0  0  0  0  0  0  0  0
   21.8851   32.5549  105.5334 C   0  0  0  0  0  0  0  0  0  0  0  0
   31.3409   34.8019  103.0280 N   0  0  0  0  0  0  0  0  0  0  0  0
   32.0444   33.5861  103.3711 C   0  0  0  0  0  0  0  0  0  0  0  0
   28.9540   35.0119   96.9642 C   0  0  0  0  0  0  0  0  0  0  0  0
   32.2780   33.6039  104.7196 O   0  0  0  0  0  0  0  0  0  0  0  0
   28.9728   36.2801   97.0262 O   0  0  0  0  0  0  0  0  0  0  0  0
   28.4800   34.6828  106.0043 O   0  0  0  0  0  0  0  0  0  0  0  0
   29.3642   35.8352  103.9909 C   0  0  0  0  0  0  0  0  0  0  0  0
   26.2699   35.5477  103.0119 C   0  0  0  0  0  0  0  0  0  0  0  0
   24.5433   37.2769  101.4465 O   0  0  0  0  0  0  0  0  0  0  0  0
   30.0949   34.3309   96.8325 O   0  0  0  0  0  0  0  0  0  0  0  0
   26.6090   35.5627   99.1155 C   0  0  0  0  0  0  0  0  0  0  0  0
   30.5693   35.0423  104.1993 C   0  0  0  0  0  0  0  0  0  0  0  0
   26.9459   35.3869  104.3482 C   0  0  0  0  0  0  0  0  0  0  0  0
   31.4818   32.5433  102.8781 O   0  0  0  0  0  0  0  0  0  0  0  0
   31.1121   34.2293  105.2900 C   0  0  0  0  0  0  0  0  0  0  0  0
   26.0434   34.8638  107.6894 O   0  0  0  0  0  0  0  0  0  0  0  0
   21.9865   32.9041  106.8995 C   0  0  0  0  0  0  0  0  0  0  0  0
   26.4956   35.0351   97.7515 C   0  0  0  0  0  0  0  0  0  0  0  0
   25.3885   35.7847   99.8305 N   0  0  0  0  0  0  0  0  0  0  0  0
   22.9674   35.7712   99.7168 N   0  0  0  0  0  0  0  0  0  0  0  0
  1  2  1  0
  1 24  2  0
  1 34  1  0
  2 23  1  0
  3  4  1  0
  3  9  1  0
  3 10  1  0
  4 15  2  0
  5  9  1  0
  5 23  1  0
  6 21  1  0
  6 22  1  0
  6 28  1  0
  7 18  1  0
  7 33  1  0
  8 22  2  0
  9 12  2  0
 10 11  2  0
 10 14  1  0
 11 32  1  0
 12 14  1  0
 12 28  1  0
 13 34  1  0
 13 35  1  0
 14 31  2  0
 15 32  1  0
 16 17  1  0
 16 27  1  0
 17 19  1  0
 17 29  1  0
 18 20  2  0
 18 25  1  0
 19 30  1  0
 22 27  1  0
 23 28  1  0
 26 33  1  0
 26 34  1  0
 27 30  1  0
M  END
$$$$
