
     RDKit          3D

 25 27  0  0  0  0  0  0  0  0999 V2000
   25.8856   34.4021  105.7918 N   0  0  0  0  0  0  0  0  0  0  0  0
   24.4149   35.4944  100.2728 C   0  0  0  0  0  0  0  0  0  0  0  0
   27.3115   34.5707  105.6299 C   0  0  0  0  0  0  0  0  0  0  0  0
   31.4877   33.7611  102.9454 C   0  0  0  0  0  0  0  0  0  0  0  0
   25.5008   34.4899  108.0946 O   0  0  0  0  0  0  0  0  0  0  0  0
   27.0242   35.6650  103.2437 C   0  0  0  0  0  0  0  0  0  0  0  0
   22.9903   36.9562   99.1537 O   0  0  0  0  0  0  0  0  0  0  0  0
   25.8549   34.7806  103.1705 C   0  0  0  0  0  0  0  0  0  0  0  0
   24.1202   36.9662   99.9068 C   0  0  0  0  0  0  0  0  0  0  0  0
   30.1191   35.5895  103.6380 C   0  0  0  0  0  0  0  0  0  0  0  0
   30.3861   32.9093  102.8723 N   0  0  0  0  0  0  0  0  0  0  0  0
   23.7712   33.4266  106.6884 C   0  0  0  0  0  0  0  0  0  0  0  0
   29.1798   33.3915  103.2332 C   0  0  0  0  0  0  0  0  0  0  0  0
   24.5637   32.9589  104.3682 C   0  0  0  0  0  0  0  0  0  0  0  0
   25.5399   35.8364  101.1846 C   0  0  0  0  0  0  0  0  0  0  0  0
   24.9201   35.5576  102.4333 O   0  0  0  0  0  0  0  0  0  0  0  0
   27.8640   35.1745  104.3884 C   0  0  0  0  0  0  0  0  0  0  0  0
   29.9533   36.8270  103.8383 O   0  0  0  0  0  0  0  0  0  0  0  0
   25.1657   33.9790  106.9523 C   0  0  0  0  0  0  0  0  0  0  0  0
   31.3120   35.0662  103.3039 N   0  0  0  0  0  0  0  0  0  0  0  0
   32.6402   33.3411  102.6106 O   0  0  0  0  0  0  0  0  0  0  0  0
   29.0600   34.6467  103.7420 N   0  0  0  0  0  0  0  0  0  0  0  0
   26.4179   36.7590  100.9703 O   0  0  0  0  0  0  0  0  0  0  0  0
   25.2054   34.3664  104.4988 C   0  0  0  0  0  0  0  0  0  0  0  0
   23.7976   32.5216  105.5209 O   0  0  0  0  0  0  0  0  0  0  0  0
  1  3  1  0
  1 19  1  0
  1 24  1  0
  2  9  1  0
  2 15  1  0
  3 17  1  0
  4 11  1  0
  4 20  1  0
  4 21  2  0
  5 19  2  0
  6  8  1  0
  6 17  1  0
  7  9  1  0
  8 16  1  0
  8 24  1  0
 10 18  2  0
 10 20  1  0
 10 22  1  0
 11 13  2  0
 12 19  1  0
 12 25  1  0
 13 22  1  0
 14 24  1  0
 14 25  1  0
 15 16  1  0
 15 23  2  0
 17 22  1  0
M  END
$$$$
