
     RDKit          3D

 24 23  0  0  0  0  0  0  0  0999 V2000
   29.0850   33.9851  103.5820 C   0  0  0  0  0  0  0  0  0  0  0  0
   30.6124   32.1948  102.4499 F   0  0  0  0  0  0  0  0  0  0  0  0
   28.2466   35.9988  103.7859 C   0  0  0  0  0  0  0  0  0  0  0  0
   32.2781   32.8794  103.7610 N   0  0  0  0  0  0  0  0  0  0  0  0
   24.7261   36.5687  100.5416 C   0  0  0  0  0  0  0  0  0  0  0  0
   31.3246   33.2781  102.8366 C   0  0  0  0  0  0  0  0  0  0  0  0
   30.4024   36.6803  104.2011 F   0  0  0  0  0  0  0  0  0  0  0  0
   24.9270   35.2470  102.6841 C   0  0  0  0  0  0  0  0  0  0  0  0
   30.3712   34.2992  103.5497 C   0  0  0  0  0  0  0  0  0  0  0  0
   26.7500   34.2891  104.4554 C   0  0  0  0  0  0  0  0  0  0  0  0
   26.4336   35.1484  105.6669 O   0  0  0  0  0  0  0  0  0  0  0  0
   25.2109   35.2957  101.2477 C   0  0  0  0  0  0  0  0  0  0  0  0
   25.6305   34.1728  103.4120 C   0  0  0  0  0  0  0  0  0  0  0  0
   32.0856   35.2592  104.9928 F   0  0  0  0  0  0  0  0  0  0  0  0
   28.0408   34.7674  103.9187 N   0  0  0  0  0  0  0  0  0  0  0  0
   25.7865   33.2062  107.0194 O   0  0  0  0  0  0  0  0  0  0  0  0
   31.9693   33.8364  101.8268 O   0  0  0  0  0  0  0  0  0  0  0  0
   23.9569   35.1229  105.6862 O   0  0  0  0  0  0  0  0  0  0  0  0
   25.3439   37.6011  100.8364 O   0  0  0  0  0  0  0  0  0  0  0  0
   23.7235   36.3274   99.7644 O   0  0  0  0  0  0  0  0  0  0  0  0
   25.1583   34.5478  106.6639 P   0  0  0  0  0  0  0  0  0  0  0  0
   29.0713   36.9017  103.8045 N   0  0  0  0  0  0  0  0  0  0  0  0
   30.9843   35.3700  104.2574 C   0  0  0  0  0  0  0  0  0  0  0  0
   24.4852   34.9154  108.0675 O   0  0  0  0  0  0  0  0  0  0  0  0
  1  9  1  0
  1 15  1  0
  2  6  1  0
  3 15  1  0
  3 22  2  0
  4  6  1  0
  5 12  1  0
  5 19  2  0
  5 20  1  0
  6  9  1  0
  6 17  1  0
  7 23  1  0
  8 12  1  0
  8 13  1  0
  9 23  1  0
 10 11  1  0
 10 13  1  0
 10 15  1  0
 11 21  1  0
 14 23  1  0
 16 21  1  0
 18 21  1  0
 21 24  1  0
M  END
$$$$
