
     RDKit          3D

 31 33  0  0  0  0  0  0  0  0999 V2000
   99.2566    5.3334  -90.1569 C   0  0  0  0  0  0  0  0  0  0  0  0
  100.2461    9.8296  -91.0688 C   0  0  0  0  0  0  0  0  0  0  0  0
  103.6449    2.1351  -93.6774 C   0  0  0  0  0  0  0  0  0  0  0  0
  101.4022    2.2964  -94.7238 C   0  0  0  0  0  0  0  0  0  0  0  0
  105.5979    4.2845  -91.7129 S   0  0  0  0  0  0  0  0  0  0  0  0
  101.3534    9.2433  -91.4316 C   0  0  0  0  0  0  0  0  0  0  0  0
  103.3129    3.1893  -92.8004 C   0  0  0  0  0  0  0  0  0  0  0  0
   96.9622    4.9111  -91.4863 C   0  0  0  0  0  0  0  0  0  0  0  0
  106.3984    3.5250  -92.6739 O   0  0  0  0  0  0  0  0  0  0  0  0
   97.6823    5.7807  -90.2690 C   0  0  0  0  0  0  0  0  0  0  0  0
  102.4278    6.4520  -90.5386 N   0  0  0  0  0  0  0  0  0  0  0  0
  102.0111    3.8273  -93.1372 C   0  0  0  0  0  0  0  0  0  0  0  0
   99.3709    4.4835  -91.5665 C   0  0  0  0  0  0  0  0  0  0  0  0
  104.0816    8.0705  -90.8248 O   0  0  0  0  0  0  0  0  0  0  0  0
  101.3276    3.2859  -93.9837 C   0  0  0  0  0  0  0  0  0  0  0  0
  104.6883    5.8058  -91.2631 C   0  0  0  0  0  0  0  0  0  0  0  0
  101.0143    5.2000  -92.3819 C   0  0  0  0  0  0  0  0  0  0  0  0
  102.2848    5.5267  -89.3764 C   0  0  0  0  0  0  0  0  0  0  0  0
  101.7447    4.9363  -88.1205 O   0  0  0  0  0  0  0  0  0  0  0  0
   98.5708    9.1517  -91.2636 C   0  0  0  0  0  0  0  0  0  0  0  0
   99.1730   10.3624  -91.2161 C   0  0  0  0  0  0  0  0  0  0  0  0
  101.4335    6.7036  -91.7395 C   0  0  0  0  0  0  0  0  0  0  0  0
  104.1866    3.3459  -91.6404 O   0  0  0  0  0  0  0  0  0  0  0  0
  100.6965    7.9791  -91.4884 C   0  0  0  0  0  0  0  0  0  0  0  0
   98.9502    3.2739  -88.6629 O   0  0  0  0  0  0  0  0  0  0  0  0
  102.7966    1.6647  -94.6176 C   0  0  0  0  0  0  0  0  0  0  0  0
   99.3408    4.4639  -88.9569 C   0  0  0  0  0  0  0  0  0  0  0  0
  106.6615    4.3852  -90.5456 O   0  0  0  0  0  0  0  0  0  0  0  0
   99.2303    7.9802  -91.4675 C   0  0  0  0  0  0  0  0  0  0  0  0
   98.0519    3.8573  -91.5077 C   0  0  0  0  0  0  0  0  0  0  0  0
  103.7465    6.8446  -90.7861 C   0  0  0  0  0  0  0  0  0  0  0  0
  1 10  1  0
  1 13  1  0
  1 27  1  0
  2  6  1  0
  2 21  1  0
  3  7  1  0
  3 26  2  0
  4 15  1  0
  4 26  1  0
  5  9  1  0
  5 16  1  0
  5 23  1  0
  5 28  1  0
  6 24  1  0
  7 12  1  0
  7 23  1  0
  8 10  1  0
  8 30  1  0
 11 18  1  0
 11 22  1  0
 11 31  1  0
 12 15  2  0
 13 17  1  0
 13 30  1  0
 14 31  2  0
 16 31  1  0
 17 22  1  0
 18 19  1  0
 20 21  1  0
 20 29  2  0
 22 24  1  0
 24 29  1  0
 25 27  1  0
M  END
$$$$
