
     RDKit          3D

 28 29  0  0  0  0  0  0  0  0999 V2000
  105.4501    5.2939  -91.9970 O   0  0  0  0  0  0  0  0  0  0  0  0
  101.1007    9.5254  -91.3136 O   0  0  0  0  0  0  0  0  0  0  0  0
   98.7958    4.1527  -89.0022 C   0  0  0  0  0  0  0  0  0  0  0  0
  102.9654    1.3606  -94.8951 O   0  0  0  0  0  0  0  0  0  0  0  0
  100.0325    3.6555  -88.4199 O   0  0  0  0  0  0  0  0  0  0  0  0
  102.3659    9.1909  -91.6334 C   0  0  0  0  0  0  0  0  0  0  0  0
  102.4912    7.8169  -91.1608 C   0  0  0  0  0  0  0  0  0  0  0  0
  105.7428    2.4923  -90.8740 O   0  0  0  0  0  0  0  0  0  0  0  0
  103.1658    2.1897  -93.8390 C   0  0  0  0  0  0  0  0  0  0  0  0
  103.1806    3.7482  -91.2420 C   0  0  0  0  0  0  0  0  0  0  0  0
  100.2744    8.4269  -91.1086 C   0  0  0  0  0  0  0  0  0  0  0  0
  102.0027    2.9775  -91.7513 O   0  0  0  0  0  0  0  0  0  0  0  0
  101.1739    7.2034  -90.9648 C   0  0  0  0  0  0  0  0  0  0  0  0
  105.3715    2.9222  -92.3198 C   0  0  0  0  0  0  0  0  0  0  0  0
   97.6914    5.6454  -90.6889 C   0  0  0  0  0  0  0  0  0  0  0  0
  101.3071    5.6247  -91.3606 O   0  0  0  0  0  0  0  0  0  0  0  0
  105.4718    8.5037  -91.6103 O   0  0  0  0  0  0  0  0  0  0  0  0
  104.6972    2.1453  -93.4764 C   0  0  0  0  0  0  0  0  0  0  0  0
  104.5115    4.2588  -92.0027 C   0  0  0  0  0  0  0  0  0  0  0  0
   98.4683    6.2433  -92.1362 C   0  0  0  0  0  0  0  0  0  0  0  0
   99.1226    4.9932  -90.1394 C   0  0  0  0  0  0  0  0  0  0  0  0
  105.3871   10.2548  -93.0034 O   0  0  0  0  0  0  0  0  0  0  0  0
  105.4462    1.7036  -94.3569 O   0  0  0  0  0  0  0  0  0  0  0  0
  103.6475    9.7461  -91.8018 C   0  0  0  0  0  0  0  0  0  0  0  0
  104.9215    9.7008  -91.9699 C   0  0  0  0  0  0  0  0  0  0  0  0
   98.7990    7.8676  -91.5974 C   0  0  0  0  0  0  0  0  0  0  0  0
  100.4633    5.9758  -90.1288 C   0  0  0  0  0  0  0  0  0  0  0  0
  101.8746    2.7847  -93.2786 C   0  0  0  0  0  0  0  0  0  0  0  0
  1 19  1  0
  2  6  1  0
  2 11  1  0
  3  5  1  0
  3 21  1  0
  4  9  1  0
  6  7  1  0
  6 24  1  0
  7 13  1  0
  8 14  1  0
  9 18  1  0
  9 28  1  0
 10 12  1  0
 10 19  1  0
 11 13  1  0
 11 26  1  0
 12 28  1  0
 13 27  1  0
 14 18  1  0
 14 19  1  0
 15 20  1  0
 15 21  1  0
 16 27  1  0
 17 25  2  0
 18 23  2  0
 20 26  1  0
 21 27  1  0
 22 25  1  0
 24 25  1  0
M  END
$$$$
