
     RDKit          3D

 31 31  0  0  0  0  0  0  0  0999 V2000
  105.4467    1.8693  -94.2478 C   0  0  0  0  0  0  0  0  0  0  0  0
  102.5561    3.8674  -92.0370 N   0  0  0  0  0  0  0  0  0  0  0  0
  102.1817    0.7463  -92.3054 O   0  0  0  0  0  0  0  0  0  0  0  0
   97.9996    7.0730  -90.8942 C   0  0  0  0  0  0  0  0  0  0  0  0
  101.7513    9.7682  -90.6774 O   0  0  0  0  0  0  0  0  0  0  0  0
  100.4515    5.6519  -93.0037 O   0  0  0  0  0  0  0  0  0  0  0  0
   99.2590    7.3138  -91.7677 C   0  0  0  0  0  0  0  0  0  0  0  0
  103.1007    1.6868  -92.9250 C   0  0  0  0  0  0  0  0  0  0  0  0
  100.4952    9.7767  -91.2579 C   0  0  0  0  0  0  0  0  0  0  0  0
   99.2843   10.8143  -91.5176 C   0  0  0  0  0  0  0  0  0  0  0  0
   99.0505    4.9560  -91.0755 N   0  0  0  0  0  0  0  0  0  0  0  0
  107.6788    4.5167  -92.6888 O   0  0  0  0  0  0  0  0  0  0  0  0
   99.7888    5.9425  -91.9716 C   0  0  0  0  0  0  0  0  0  0  0  0
  104.7109    1.6061  -93.0873 C   0  0  0  0  0  0  0  0  0  0  0  0
   96.6939    3.8732  -89.4125 O   0  0  0  0  0  0  0  0  0  0  0  0
  103.8177    9.7784  -92.0594 O   0  0  0  0  0  0  0  0  0  0  0  0
  106.8195    4.7274  -91.3950 P   0  0  0  0  0  0  0  0  0  0  0  0
  102.5383    3.0795  -93.2706 C   0  0  0  0  0  0  0  0  0  0  0  0
  103.5861    4.7529  -91.6999 C   0  0  0  0  0  0  0  0  0  0  0  0
   99.2510    4.4293  -89.7273 C   0  0  0  0  0  0  0  0  0  0  0  0
  104.3240    5.8054  -90.7492 C   0  0  0  0  0  0  0  0  0  0  0  0
  105.6968    6.3094  -91.6027 C   0  0  0  0  0  0  0  0  0  0  0  0
  100.6160    4.0398  -89.2955 O   0  0  0  0  0  0  0  0  0  0  0  0
  106.0297    3.3240  -90.9510 O   0  0  0  0  0  0  0  0  0  0  0  0
  107.4368    4.8375  -89.7295 O   0  0  0  0  0  0  0  0  0  0  0  0
  103.2074    8.2262  -90.8818 N   0  0  0  0  0  0  0  0  0  0  0  0
   98.1389    3.9710  -88.8190 C   0  0  0  0  0  0  0  0  0  0  0  0
   97.5593    5.5099  -91.2801 C   0  0  0  0  0  0  0  0  0  0  0  0
  100.2351    8.4270  -91.4491 C   0  0  0  0  0  0  0  0  0  0  0  0
  102.6389    9.2282  -91.7182 C   0  0  0  0  0  0  0  0  0  0  0  0
   96.5915    4.3276  -90.8602 C   0  0  0  0  0  0  0  0  0  0  0  0
  1 14  1  0
  2 18  1  0
  2 19  2  3
  3  8  1  0
  4  7  1  0
  4 28  1  0
  5  9  1  0
  5 30  1  0
  6 13  2  0
  7 13  1  0
  7 29  1  0
  8 14  1  0
  8 18  1  0
  9 10  1  0
  9 29  2  3
 11 13  1  0
 11 20  1  0
 11 28  1  0
 12 17  1  0
 15 27  1  0
 15 31  1  0
 16 30  1  0
 17 22  1  0
 17 24  1  0
 17 25  1  0
 19 21  1  0
 20 23  2  0
 20 27  1  0
 21 22  1  0
 26 30  1  0
 28 31  1  0
M  END
$$$$
