
     RDKit          3D

 27 27  0  0  0  0  0  0  0  0999 V2000
   99.5137    7.6677  -91.3027 C   0  0  0  0  0  0  0  0  0  0  0  0
  105.1771    4.3074  -91.9134 C   0  0  0  0  0  0  0  0  0  0  0  0
   99.6102    5.5938  -89.8417 N   0  0  0  0  0  0  0  0  0  0  0  0
  104.4822    3.4082  -92.7972 C   0  0  0  0  0  0  0  0  0  0  0  0
   98.5473    8.6034  -91.1593 C   0  0  0  0  0  0  0  0  0  0  0  0
  104.8385    4.7562  -90.6168 O   0  0  0  0  0  0  0  0  0  0  0  0
   99.9246    3.9365  -87.9152 C   0  0  0  0  0  0  0  0  0  0  0  0
  103.1262    3.0268  -93.2028 C   0  0  0  0  0  0  0  0  0  0  0  0
  100.8729    8.1214  -91.3060 C   0  0  0  0  0  0  0  0  0  0  0  0
   99.9795   10.2072  -91.2308 C   0  0  0  0  0  0  0  0  0  0  0  0
  100.0269    5.2858  -92.4640 C   0  0  0  0  0  0  0  0  0  0  0  0
  106.5493    3.4847  -91.8259 C   0  0  0  0  0  0  0  0  0  0  0  0
   99.2145    2.6584  -87.8047 O   0  0  0  0  0  0  0  0  0  0  0  0
  101.5522    4.6808  -94.4621 C   0  0  0  0  0  0  0  0  0  0  0  0
  106.4877    2.5963  -90.7184 O   0  0  0  0  0  0  0  0  0  0  0  0
  102.1144    3.6144  -92.3460 C   0  0  0  0  0  0  0  0  0  0  0  0
   99.0953    4.9022  -88.6813 C   0  0  0  0  0  0  0  0  0  0  0  0
  104.1727    6.0328  -90.3918 C   0  0  0  0  0  0  0  0  0  0  0  0
  101.4156    4.7265  -93.1308 N   0  0  0  0  0  0  0  0  0  0  0  0
  102.1925    3.3493  -91.0573 O   0  0  0  0  0  0  0  0  0  0  0  0
   99.3886    3.9609  -91.9649 O   0  0  0  0  0  0  0  0  0  0  0  0
  102.6382    9.3192  -91.6101 C   0  0  0  0  0  0  0  0  0  0  0  0
  107.3623    4.1395  -92.5654 O   0  0  0  0  0  0  0  0  0  0  0  0
   98.7966    9.9517  -91.1827 C   0  0  0  0  0  0  0  0  0  0  0  0
  101.2083    9.4043  -91.3487 C   0  0  0  0  0  0  0  0  0  0  0  0
   99.2259    6.1773  -91.3876 C   0  0  0  0  0  0  0  0  0  0  0  0
  101.1568    4.5120  -87.4352 C   0  0  0  0  0  0  0  0  0  0  0  0
  1  5  1  0
  1  9  2  0
  1 26  1  0
  2  4  1  0
  2  6  1  0
  2 12  1  0
  3 17  1  0
  3 26  1  0
  4  8  1  0
  5 24  1  0
  6 18  1  0
  7 13  1  0
  7 17  1  0
  7 27  1  0
  8 16  1  0
  9 25  1  0
 10 24  1  0
 10 25  2  0
 11 19  1  0
 11 21  2  0
 11 26  1  0
 12 15  2  0
 12 23  1  0
 14 19  1  0
 16 19  1  0
 16 20  2  0
 22 25  1  0
M  END
$$$$
