
     RDKit          3D

 26 27  0  0  0  0  0  0  0  0999 V2000
   99.0173    7.5070  -90.7568 N   0  0  0  0  0  0  0  0  0  0  0  0
  102.2757    8.5885  -91.5544 O   0  0  0  0  0  0  0  0  0  0  0  0
   97.8854   12.1525  -90.9709 C   0  0  0  0  0  0  0  0  0  0  0  0
  101.0809    4.6120  -88.5857 C   0  0  0  0  0  0  0  0  0  0  0  0
  105.1519    4.0871  -91.8893 C   0  0  0  0  0  0  0  0  0  0  0  0
   97.9247    9.7336  -90.6353 N   0  0  0  0  0  0  0  0  0  0  0  0
  101.9978    4.5464  -91.2431 O   0  0  0  0  0  0  0  0  0  0  0  0
  100.1737    2.6495  -87.5023 O   0  0  0  0  0  0  0  0  0  0  0  0
  100.3918    7.1575  -91.0592 N   0  0  0  0  0  0  0  0  0  0  0  0
  100.0791    5.1405  -92.5197 C   0  0  0  0  0  0  0  0  0  0  0  0
  100.1232    9.4631  -91.1733 C   0  0  0  0  0  0  0  0  0  0  0  0
  101.0630    8.4296  -91.3261 C   0  0  0  0  0  0  0  0  0  0  0  0
  100.0718    4.0329  -89.4819 O   0  0  0  0  0  0  0  0  0  0  0  0
  104.0225    4.1650  -92.4905 N   0  0  0  0  0  0  0  0  0  0  0  0
   99.7435   10.5911  -91.2246 N   0  0  0  0  0  0  0  0  0  0  0  0
  105.2782    4.5766  -90.7270 O   0  0  0  0  0  0  0  0  0  0  0  0
  105.9658    3.0103  -92.3205 C   0  0  0  0  0  0  0  0  0  0  0  0
  101.0600    5.3393  -93.6454 O   0  0  0  0  0  0  0  0  0  0  0  0
  100.7903    3.9992  -87.2840 C   0  0  0  0  0  0  0  0  0  0  0  0
   98.8423    8.8073  -90.7659 C   0  0  0  0  0  0  0  0  0  0  0  0
  102.2897    5.2987  -88.7922 C   0  0  0  0  0  0  0  0  0  0  0  0
  105.5626    2.3778  -93.5261 O   0  0  0  0  0  0  0  0  0  0  0  0
  102.6600    4.0987  -92.4307 C   0  0  0  0  0  0  0  0  0  0  0  0
  101.8170    4.1794  -93.7722 C   0  0  0  0  0  0  0  0  0  0  0  0
  100.9544    5.7293  -91.2663 C   0  0  0  0  0  0  0  0  0  0  0  0
   98.5842   10.9248  -90.9881 C   0  0  0  0  0  0  0  0  0  0  0  0
  1  9  1  0
  1 20  2  0
  2 12  2  0
  3 26  1  0
  4 13  1  0
  4 19  1  0
  4 21  1  0
  5 14  1  0
  5 16  2  0
  5 17  1  0
  6 20  1  0
  6 26  2  0
  7 23  1  0
  7 25  1  0
  8 19  1  0
  9 12  1  0
  9 25  1  0
 10 18  1  0
 10 25  1  0
 11 12  1  0
 11 15  2  0
 11 20  1  0
 14 23  1  0
 15 26  1  0
 17 22  1  0
 18 24  1  0
 23 24  1  0
M  END
$$$$
