
     RDKit          3D

 18 17  0  0  0  0  0  0  0  0999 V2000
  101.5600    5.8170  -92.0532 C   0  0  0  0  0  0  0  0  0  0  0  0
   99.8993    4.0595  -89.9888 O   0  0  0  0  0  0  0  0  0  0  0  0
   99.1356    8.3620  -90.4205 C   0  0  0  0  0  0  0  0  0  0  0  0
  101.1942    5.0831  -93.4186 C   0  0  0  0  0  0  0  0  0  0  0  0
  103.5930    2.1908  -91.5458 C   0  0  0  0  0  0  0  0  0  0  0  0
  106.2274    2.3673  -90.6721 O   0  0  0  0  0  0  0  0  0  0  0  0
   99.4950   10.5581  -91.4099 C   0  0  0  0  0  0  0  0  0  0  0  0
  106.6259    3.6220  -92.6034 O   0  0  0  0  0  0  0  0  0  0  0  0
  102.9201    5.2979  -91.5262 N   0  0  0  0  0  0  0  0  0  0  0  0
  101.8296    8.9017  -91.5841 S   0  0  0  0  0  0  0  0  0  0  0  0
   98.7463   11.6243  -91.6578 C   0  0  0  0  0  0  0  0  0  0  0  0
  105.9945    2.9622  -91.8551 C   0  0  0  0  0  0  0  0  0  0  0  0
  100.6261    6.3287  -90.8920 C   0  0  0  0  0  0  0  0  0  0  0  0
   99.4800    5.1918  -90.6739 C   0  0  0  0  0  0  0  0  0  0  0  0
  104.3377    4.7779  -91.8142 C   0  0  0  0  0  0  0  0  0  0  0  0
  104.4896    3.3672  -91.8620 C   0  0  0  0  0  0  0  0  0  0  0  0
   98.5475    9.5173  -91.0047 C   0  0  0  0  0  0  0  0  0  0  0  0
  100.5065    7.8909  -90.8267 C   0  0  0  0  0  0  0  0  0  0  0  0
  1  4  1  0
  1  9  1  0
  1 13  1  0
  2 14  1  0
  3 17  1  0
  3 18  1  0
  5 16  1  0
  6 12  2  0
  7 11  1  0
  7 17  1  0
  8 12  1  0
  9 15  1  0
 10 18  1  0
 12 16  1  0
 13 14  1  0
 13 18  1  0
 15 16  2  3
M  END
$$$$
