
     RDKit          3D

 35 38  0  0  0  0  0  0  0  0999 V2000
  100.1071    9.4679  -91.1699 C   0  0  0  0  0  0  0  0  0  0  0  0
   98.6932   11.3965  -91.2979 C   0  0  0  0  0  0  0  0  0  0  0  0
   98.7592    6.1214  -89.7988 C   0  0  0  0  0  0  0  0  0  0  0  0
   98.0749    4.0388  -91.4131 C   0  0  0  0  0  0  0  0  0  0  0  0
  100.2479    3.4932  -92.6080 C   0  0  0  0  0  0  0  0  0  0  0  0
  103.4132    5.8770  -89.1292 C   0  0  0  0  0  0  0  0  0  0  0  0
  103.3004    3.1120  -93.1402 C   0  0  0  0  0  0  0  0  0  0  0  0
  102.6570    9.3318  -92.0535 O   0  0  0  0  0  0  0  0  0  0  0  0
   98.9297    7.4025  -90.1938 C   0  0  0  0  0  0  0  0  0  0  0  0
   99.5484   10.4585  -91.3820 C   0  0  0  0  0  0  0  0  0  0  0  0
   98.9373    8.7739  -90.6125 C   0  0  0  0  0  0  0  0  0  0  0  0
  103.0151    4.2369  -92.2529 C   0  0  0  0  0  0  0  0  0  0  0  0
   97.7477    9.4233  -90.3570 N   0  0  0  0  0  0  0  0  0  0  0  0
   99.7429    5.6571  -88.9903 N   0  0  0  0  0  0  0  0  0  0  0  0
   97.0968    4.2563  -90.6816 C   0  0  0  0  0  0  0  0  0  0  0  0
  103.1092    7.1769  -90.9131 N   0  0  0  0  0  0  0  0  0  0  0  0
  102.8006    5.8858  -90.1926 C   0  0  0  0  0  0  0  0  0  0  0  0
  102.6196    1.5340  -94.7633 C   0  0  0  0  0  0  0  0  0  0  0  0
  104.2540    5.7308  -86.7315 O   0  0  0  0  0  0  0  0  0  0  0  0
  103.8093    1.0338  -94.7876 C   0  0  0  0  0  0  0  0  0  0  0  0
  101.9608    3.7675  -90.1306 O   0  0  0  0  0  0  0  0  0  0  0  0
  104.9960    6.4533  -89.4508 C   0  0  0  0  0  0  0  0  0  0  0  0
  101.6022    9.0134  -91.5666 C   0  0  0  0  0  0  0  0  0  0  0  0
   97.6336   10.7459  -90.6950 C   0  0  0  0  0  0  0  0  0  0  0  0
  102.2131    2.4764  -93.8711 N   0  0  0  0  0  0  0  0  0  0  0  0
  104.9596    1.4901  -94.2354 N   0  0  0  0  0  0  0  0  0  0  0  0
  104.6816    7.2215  -90.8179 C   0  0  0  0  0  0  0  0  0  0  0  0
  102.6537    4.5090  -90.8540 C   0  0  0  0  0  0  0  0  0  0  0  0
  104.6448    2.4935  -93.2302 N   0  0  0  0  0  0  0  0  0  0  0  0
  103.1067    5.7003  -87.4762 C   0  0  0  0  0  0  0  0  0  0  0  0
  102.1271    5.0697  -87.1052 O   0  0  0  0  0  0  0  0  0  0  0  0
   97.7475    5.0921  -90.0647 C   0  0  0  0  0  0  0  0  0  0  0  0
  100.9352    2.7570  -93.5651 C   0  0  0  0  0  0  0  0  0  0  0  0
  101.7783    7.6792  -91.4675 N   0  0  0  0  0  0  0  0  0  0  0  0
   99.2365    3.9744  -91.8605 C   0  0  0  0  0  0  0  0  0  0  0  0
  1 10  1  0
  1 11  1  0
  1 23  1  0
  2 10  1  0
  2 24  1  0
  3  9  2  0
  3 14  1  0
  3 32  1  0
  4 15  1  0
  4 35  3  0
  5 33  1  0
  5 35  1  0
  6 17  1  0
  6 22  1  0
  6 30  1  0
  7 12  1  0
  7 25  1  0
  7 29  2  0
  8 23  2  0
  9 11  2  0
 11 13  1  0
 12 28  1  0
 13 24  2  0
 15 32  1  0
 16 17  1  0
 16 27  1  0
 16 34  1  0
 17 28  1  0
 18 20  1  0
 18 25  1  0
 19 30  2  0
 20 26  1  0
 21 28  2  0
 22 27  1  0
 23 34  1  0
 25 33  1  0
 26 29  1  0
 30 31  1  0
M  END
$$$$
