
     RDKit          3D

 25 27  0  0  0  0  0  0  0  0999 V2000
   97.4575    4.3589  -90.2461 C   0  0  0  0  0  0  0  0  0  0  0  0
  101.3651    3.0750  -92.0621 O   0  0  0  0  0  0  0  0  0  0  0  0
  101.2536    6.3323  -92.2841 C   0  0  0  0  0  0  0  0  0  0  0  0
   99.0947    5.5373  -91.8665 C   0  0  0  0  0  0  0  0  0  0  0  0
   98.0875   11.1248  -90.9548 C   0  0  0  0  0  0  0  0  0  0  0  0
  100.1681   10.0364  -91.3142 C   0  0  0  0  0  0  0  0  0  0  0  0
   99.1814   11.0846  -91.3891 C   0  0  0  0  0  0  0  0  0  0  0  0
   98.4998    8.8659  -90.5901 C   0  0  0  0  0  0  0  0  0  0  0  0
  103.6170    3.1092  -91.3262 C   0  0  0  0  0  0  0  0  0  0  0  0
  106.0732    2.8629  -91.6862 P   0  0  0  0  0  0  0  0  0  0  0  0
   99.5333    6.5507  -90.8498 N   0  0  0  0  0  0  0  0  0  0  0  0
  104.8589    3.6824  -90.8964 O   0  0  0  0  0  0  0  0  0  0  0  0
  105.9674    2.9191  -93.0033 O   0  0  0  0  0  0  0  0  0  0  0  0
  102.7022    9.1875  -92.1092 O   0  0  0  0  0  0  0  0  0  0  0  0
  100.1915    5.4648  -92.8565 C   0  0  0  0  0  0  0  0  0  0  0  0
   98.1069    5.3096  -89.1797 N   0  0  0  0  0  0  0  0  0  0  0  0
   97.6565    9.9107  -90.4478 C   0  0  0  0  0  0  0  0  0  0  0  0
  100.7095    7.5840  -91.3381 C   0  0  0  0  0  0  0  0  0  0  0  0
   99.7800    8.8901  -91.0743 C   0  0  0  0  0  0  0  0  0  0  0  0
  102.3389    5.4850  -91.7124 C   0  0  0  0  0  0  0  0  0  0  0  0
  102.5301    4.0264  -91.9468 C   0  0  0  0  0  0  0  0  0  0  0  0
   99.0874    6.3354  -89.5214 C   0  0  0  0  0  0  0  0  0  0  0  0
   97.9378    4.5456  -91.5770 C   0  0  0  0  0  0  0  0  0  0  0  0
  106.6141    2.3890  -90.4869 O   0  0  0  0  0  0  0  0  0  0  0  0
  102.1286    8.4187  -91.4503 C   0  0  0  0  0  0  0  0  0  0  0  0
  1 16  1  0
  1 23  1  0
  2 21  1  0
  3 15  1  0
  3 18  1  0
  3 20  1  0
  4 11  1  0
  4 15  1  0
  4 23  1  0
  5  7  1  0
  5 17  1  0
  6  7  1  0
  6 19  1  0
  8 17  1  0
  8 19  2  0
  9 12  1  0
  9 21  1  0
 10 12  1  0
 10 13  1  0
 10 24  1  0
 11 18  1  0
 11 22  1  0
 14 25  2  0
 16 22  2  0
 18 19  1  0
 18 25  1  0
 20 21  1  0
M  END
$$$$
