
     RDKit          3D

 27 29  0  0  0  0  0  0  0  0999 V2000
  100.7810    5.1559  -90.4542 C   0  0  0  0  0  0  0  0  0  0  0  0
  101.9828    3.5695  -92.2933 N   0  0  0  0  0  0  0  0  0  0  0  0
  101.8872    4.3358  -90.9914 C   0  0  0  0  0  0  0  0  0  0  0  0
  105.8288    4.7500  -91.8846 C   0  0  0  0  0  0  0  0  0  0  0  0
  100.5451    6.6279  -90.5096 C   0  0  0  0  0  0  0  0  0  0  0  0
  102.8214    2.4955  -92.6030 C   0  0  0  0  0  0  0  0  0  0  0  0
  105.1127    3.3528  -91.7196 C   0  0  0  0  0  0  0  0  0  0  0  0
   99.5477    4.5338  -90.0531 N   0  0  0  0  0  0  0  0  0  0  0  0
  105.3291    9.9650  -92.2004 C   0  0  0  0  0  0  0  0  0  0  0  0
   99.1634    6.8063  -90.3226 C   0  0  0  0  0  0  0  0  0  0  0  0
   98.6359    8.2936  -90.6255 C   0  0  0  0  0  0  0  0  0  0  0  0
  100.9520    3.5134  -93.2492 N   0  0  0  0  0  0  0  0  0  0  0  0
  103.9641    2.2330  -91.6090 C   0  0  0  0  0  0  0  0  0  0  0  0
   99.9369   10.2301  -91.2601 C   0  0  0  0  0  0  0  0  0  0  0  0
  101.4077    2.8573  -94.4571 C   0  0  0  0  0  0  0  0  0  0  0  0
  107.2480    4.3001  -92.6613 C   0  0  0  0  0  0  0  0  0  0  0  0
  106.0720    2.5378  -90.8399 O   0  0  0  0  0  0  0  0  0  0  0  0
  102.5694    8.5393  -90.8284 C   0  0  0  0  0  0  0  0  0  0  0  0
  105.0625    5.7923  -91.0201 C   0  0  0  0  0  0  0  0  0  0  0  0
  106.4802    8.9761  -92.5225 C   0  0  0  0  0  0  0  0  0  0  0  0
  101.0584    7.9882  -90.8404 C   0  0  0  0  0  0  0  0  0  0  0  0
   98.5232    5.4642  -89.9950 C   0  0  0  0  0  0  0  0  0  0  0  0
  102.5883    2.1772  -94.0156 C   0  0  0  0  0  0  0  0  0  0  0  0
  106.4511    7.5293  -92.0832 C   0  0  0  0  0  0  0  0  0  0  0  0
  100.0097    8.9664  -90.9713 C   0  0  0  0  0  0  0  0  0  0  0  0
  105.2180    7.3191  -91.1983 N   0  0  0  0  0  0  0  0  0  0  0  0
  107.2243    9.1333  -93.3861 C   0  0  0  0  0  0  0  0  0  0  0  0
  1  3  1  0
  1  5  1  0
  1  8  1  0
  2  3  1  0
  2  6  1  0
  2 12  1  0
  4  7  1  0
  4 16  1  0
  4 19  1  0
  5 10  2  0
  5 21  1  0
  6 13  1  0
  6 23  1  0
  7 13  1  0
  7 17  1  0
  8 22  1  0
  9 20  1  0
 10 11  1  0
 10 22  1  0
 11 25  1  0
 12 15  1  0
 14 25  2  0
 15 23  1  0
 18 21  1  0
 19 26  1  0
 20 24  1  0
 20 27  2  0
 21 25  1  0
 24 26  1  0
M  END
$$$$
