
     RDKit          3D

 28 30  0  0  0  0  0  0  0  0999 V2000
  103.8481    3.5603  -92.1612 C   0  0  0  0  0  0  0  0  0  0  0  0
   99.5311   10.2335  -91.3024 C   0  0  0  0  0  0  0  0  0  0  0  0
  101.2549    8.5734  -91.4523 C   0  0  0  0  0  0  0  0  0  0  0  0
  104.8557    5.5436  -91.0771 C   0  0  0  0  0  0  0  0  0  0  0  0
  103.4988    2.3066  -91.5414 O   0  0  0  0  0  0  0  0  0  0  0  0
  107.2482    5.8734  -90.6249 O   0  0  0  0  0  0  0  0  0  0  0  0
  103.7039    7.7411  -90.7805 N   0  0  0  0  0  0  0  0  0  0  0  0
  100.2788    4.9688  -92.6552 C   0  0  0  0  0  0  0  0  0  0  0  0
   98.5950    9.2731  -91.2784 C   0  0  0  0  0  0  0  0  0  0  0  0
  100.2547    2.7229  -92.7036 O   0  0  0  0  0  0  0  0  0  0  0  0
  106.0587    6.4173  -91.3366 C   0  0  0  0  0  0  0  0  0  0  0  0
   98.9245    7.9255  -91.5399 C   0  0  0  0  0  0  0  0  0  0  0  0
  105.0436    4.1845  -91.6994 C   0  0  0  0  0  0  0  0  0  0  0  0
  102.5338    8.2968  -91.3677 C   0  0  0  0  0  0  0  0  0  0  0  0
  101.4780    4.7125  -93.4954 O   0  0  0  0  0  0  0  0  0  0  0  0
   98.8124    3.4769  -90.9800 O   0  0  0  0  0  0  0  0  0  0  0  0
  106.3971    7.5728  -92.1191 C   0  0  0  0  0  0  0  0  0  0  0  0
   98.9735   11.4909  -91.4694 C   0  0  0  0  0  0  0  0  0  0  0  0
   98.5295    6.4425  -92.0843 O   0  0  0  0  0  0  0  0  0  0  0  0
  107.1161    7.3894  -93.3066 O   0  0  0  0  0  0  0  0  0  0  0  0
   99.6118    3.8662  -92.1509 C   0  0  0  0  0  0  0  0  0  0  0  0
  100.0621    6.2542  -92.2482 C   0  0  0  0  0  0  0  0  0  0  0  0
  100.8617    9.6857  -91.2008 C   0  0  0  0  0  0  0  0  0  0  0  0
  103.9717    6.2553  -89.9961 C   0  0  0  0  0  0  0  0  0  0  0  0
  105.6477    8.7396  -92.0563 O   0  0  0  0  0  0  0  0  0  0  0  0
  100.2204    7.6055  -91.5927 C   0  0  0  0  0  0  0  0  0  0  0  0
  102.7231    4.4066  -92.3872 C   0  0  0  0  0  0  0  0  0  0  0  0
  105.8760    3.2549  -91.0081 O   0  0  0  0  0  0  0  0  0  0  0  0
  1  5  1  0
  1 13  1  0
  1 27  1  0
  2  9  1  0
  2 18  1  0
  2 23  1  0
  3 14  1  0
  3 23  2  0
  3 26  1  0
  4 11  1  0
  4 13  1  0
  4 24  1  0
  6 11  1  0
  7 14  1  0
  7 24  1  0
  8 15  1  0
  8 21  1  0
  8 22  1  0
  9 12  1  0
 10 21  2  0
 11 17  1  0
 12 19  1  0
 12 26  2  0
 13 28  1  0
 15 27  1  0
 16 21  1  0
 17 20  2  0
 17 25  1  0
 19 22  1  0
 22 26  1  0
M  END
$$$$
