
     RDKit          3D

 31 33  0  0  0  0  0  0  0  0999 V2000
  -19.5447   15.9378  -30.2958 O   0  0  0  0  0  0  0  0  0  0  0  0
  -18.2202   16.0724  -30.8042 C   0  0  0  0  0  0  0  0  0  0  0  0
  -18.1777   15.3860  -32.1682 C   0  0  0  0  0  0  0  0  0  0  0  0
  -14.5596   15.7757  -27.9144 O   0  0  0  0  0  0  0  0  0  0  0  0
  -17.6083   17.4367  -31.1004 C   0  0  0  0  0  0  0  0  0  0  0  0
  -14.5269   14.6722  -27.0101 C   0  0  0  0  0  0  0  0  0  0  0  0
  -18.4197   16.5483  -26.6591 C   0  0  0  0  0  0  0  0  0  0  0  0
  -21.0349   16.6772  -27.5165 C   0  0  0  0  0  0  0  0  0  0  0  0
  -17.7298   18.3853  -30.0806 O   0  0  0  0  0  0  0  0  0  0  0  0
  -15.8410   16.1053  -28.2492 C   0  0  0  0  0  0  0  0  0  0  0  0
  -18.5487   17.0192  -28.0683 C   0  0  0  0  0  0  0  0  0  0  0  0
  -20.2251   18.6473  -28.6792 O   0  0  0  0  0  0  0  0  0  0  0  0
  -19.2890   17.4717  -33.3265 O   0  0  0  0  0  0  0  0  0  0  0  0
  -15.9449   14.1208  -27.0100 C   0  0  0  0  0  0  0  0  0  0  0  0
  -19.2329   16.1371  -32.9553 C   0  0  0  0  0  0  0  0  0  0  0  0
  -22.8071   16.7157  -29.4637 C   0  0  0  0  0  0  0  0  0  0  0  0
  -22.0165   15.7575  -30.3892 C   0  0  0  0  0  0  0  0  0  0  0  0
  -16.6788   17.4332  -32.0116 O   0  0  0  0  0  0  0  0  0  0  0  0
  -22.4380   16.6147  -27.9720 C   0  0  0  0  0  0  0  0  0  0  0  0
  -24.8193   15.6901  -28.3347 C   0  0  0  0  0  0  0  0  0  0  0  0
  -20.7380   16.2038  -31.0283 C   0  0  0  0  0  0  0  0  0  0  0  0
  -24.3275   16.2344  -29.6637 C   0  0  0  0  0  0  0  0  0  0  0  0
  -17.5260   17.8803  -28.7264 C   0  0  0  0  0  0  0  0  0  0  0  0
  -16.6790   14.9402  -28.0015 C   0  0  0  0  0  0  0  0  0  0  0  0
  -20.5799   15.7549  -32.4301 C   0  0  0  0  0  0  0  0  0  0  0  0
  -19.9957   17.3871  -28.3453 C   0  0  0  0  0  0  0  0  0  0  0  0
  -25.2004   15.3781  -30.6641 C   0  0  0  0  0  0  0  0  0  0  0  0
  -21.0091   17.0830  -26.1942 O   0  0  0  0  0  0  0  0  0  0  0  0
  -16.1737   17.4111  -28.6276 N   0  0  0  0  0  0  0  0  0  0  0  0
  -26.6239   15.2233  -30.1406 C   0  0  0  0  0  0  0  0  0  0  0  0
  -26.7850   13.8806  -29.5205 C   0  0  0  0  0  0  0  0  0  0  0  0
  1  2  1  0
  1 21  1  0
  2  3  1  0
  2  5  1  0
  3 15  1  0
  4  6  1  0
  4 10  1  0
  5  9  1  0
  5 18  2  0
  6 14  1  0
  7 11  1  0
  8 19  1  0
  8 26  1  0
  8 28  1  0
  9 23  1  0
 10 24  1  0
 10 29  2  3
 11 23  1  0
 11 26  1  0
 12 26  1  0
 13 15  1  0
 14 24  1  0
 15 25  1  0
 16 17  1  0
 16 19  1  0
 16 22  1  0
 17 21  1  0
 20 22  1  0
 21 25  1  0
 22 27  1  0
 23 29  1  0
 27 30  1  0
 30 31  1  0
M  END
$$$$
