
     RDKit          3D

 25 28  0  0  0  0  0  0  0  0999 V2000
  -22.3854   16.6303  -27.5148 C   0  0  0  0  0  0  0  0  0  0  0  0
  -18.0329   16.1201  -28.8287 C   0  0  0  0  0  0  0  0  0  0  0  0
  -15.9909   17.2460  -27.3737 C   0  0  0  0  0  0  0  0  0  0  0  0
  -16.6476   15.2226  -30.6000 C   0  0  0  0  0  0  0  0  0  0  0  0
  -15.2019   14.4110  -27.1345 C   0  0  0  0  0  0  0  0  0  0  0  0
  -20.1269   14.5482  -32.4459 C   0  0  0  0  0  0  0  0  0  0  0  0
  -16.7255   15.6634  -29.1886 C   0  0  0  0  0  0  0  0  0  0  0  0
  -18.2848   16.0984  -27.4068 C   0  0  0  0  0  0  0  0  0  0  0  0
  -14.8691   17.6798  -26.5431 C   0  0  0  0  0  0  0  0  0  0  0  0
  -20.2317   16.8160  -28.5568 C   0  0  0  0  0  0  0  0  0  0  0  0
  -17.1869   16.7286  -26.6504 C   0  0  0  0  0  0  0  0  0  0  0  0
  -18.9231   15.1625  -31.7140 C   0  0  0  0  0  0  0  0  0  0  0  0
  -15.8413   14.9860  -28.3769 C   0  0  0  0  0  0  0  0  0  0  0  0
  -17.9108   14.3749  -30.8936 C   0  0  0  0  0  0  0  0  0  0  0  0
  -19.2606   16.2684  -29.4886 C   0  0  0  0  0  0  0  0  0  0  0  0
  -15.6642   16.3682  -28.5622 C   0  0  0  0  0  0  0  0  0  0  0  0
  -17.6180   17.4805  -25.6295 O   0  0  0  0  0  0  0  0  0  0  0  0
  -14.7405   16.8846  -29.4172 O   0  0  0  0  0  0  0  0  0  0  0  0
  -19.5261   16.2762  -30.9060 C   0  0  0  0  0  0  0  0  0  0  0  0
  -19.6374   16.6768  -27.2150 C   0  0  0  0  0  0  0  0  0  0  0  0
  -20.3976   15.9877  -26.1413 C   0  0  0  0  0  0  0  0  0  0  0  0
  -22.4490   17.9971  -27.4646 O   0  0  0  0  0  0  0  0  0  0  0  0
  -21.8662   15.8832  -26.3259 C   0  0  0  0  0  0  0  0  0  0  0  0
  -19.0265   13.9860  -33.0336 C   0  0  0  0  0  0  0  0  0  0  0  0
  -21.6254   16.3160  -28.7683 C   0  0  0  0  0  0  0  0  0  0  0  0
  1 22  1  0
  1 23  1  0
  1 25  1  0
  2  7  1  0
  2  8  1  0
  2 15  1  0
  3  9  1  0
  3 11  1  0
  3 16  1  0
  4  7  1  0
  4 14  1  0
  5 13  1  0
  6 12  1  0
  6 24  1  0
  7 13  1  0
  8 11  1  0
  8 20  1  0
 10 15  1  0
 10 20  1  0
 10 25  1  0
 11 17  1  0
 12 14  1  0
 12 19  1  0
 13 16  1  0
 15 19  1  0
 16 18  1  0
 20 21  1  0
 21 23  1  0
M  END
$$$$
