
     RDKit          3D

 14 13  0  0  0  0  0  0  0  0999 V2000
  -15.9077   16.0761  -27.5439 C   0  0  0  0  0  0  0  0  0  0  0  0
  -19.6667   15.8251  -27.6057 C   0  0  0  0  0  0  0  0  0  0  0  0
  -23.0265   16.7085  -28.6202 N   0  0  0  0  0  0  0  0  0  0  0  0
  -17.4907   16.9371  -26.1032 O   0  0  0  0  0  0  0  0  0  0  0  0
  -19.9532   16.0402  -26.2081 C   0  0  0  0  0  0  0  0  0  0  0  0
  -17.2338   16.0212  -27.0241 C   0  0  0  0  0  0  0  0  0  0  0  0
  -20.7622   17.0329  -25.6832 C   0  0  0  0  0  0  0  0  0  0  0  0
  -23.2311   16.4523  -29.9395 C   0  0  0  0  0  0  0  0  0  0  0  0
  -22.0176   16.2538  -27.9336 C   0  0  0  0  0  0  0  0  0  0  0  0
  -14.7935   16.6017  -26.7849 C   0  0  0  0  0  0  0  0  0  0  0  0
  -18.2646   15.3092  -27.9113 C   0  0  0  0  0  0  0  0  0  0  0  0
  -15.4366   14.7973  -28.3030 C   0  0  0  0  0  0  0  0  0  0  0  0
  -20.7973   15.7991  -28.4285 N   0  0  0  0  0  0  0  0  0  0  0  0
  -22.0678   16.2626  -30.6847 N   0  0  0  0  0  0  0  0  0  0  0  0
  1  6  1  0
  1 10  1  0
  1 12  1  0
  2  5  1  0
  2 11  1  0
  2 13  2  3
  3  8  1  0
  3  9  1  0
  4  6  1  0
  5  7  1  0
  6 11  1  0
  8 14  1  0
  9 13  1  0
M  END
$$$$
