
     RDKit          3D

 19 20  0  0  0  0  0  0  0  0999 V2000
  -23.1959   16.8471  -27.7816 C   0  0  0  0  0  0  0  0  0  0  0  0
  -19.6285   16.8049  -29.0286 C   0  0  0  0  0  0  0  0  0  0  0  0
  -16.0243   14.4404  -27.0231 C   0  0  0  0  0  0  0  0  0  0  0  0
  -21.1017   16.7759  -28.8393 C   0  0  0  0  0  0  0  0  0  0  0  0
  -16.6693   17.2116  -29.9061 F   0  0  0  0  0  0  0  0  0  0  0  0
  -19.3445   17.4716  -30.3189 C   0  0  0  0  0  0  0  0  0  0  0  0
  -19.5256   16.5676  -31.4425 O   0  0  0  0  0  0  0  0  0  0  0  0
  -18.7429   16.6013  -27.9584 N   0  0  0  0  0  0  0  0  0  0  0  0
  -14.9841   15.0160  -27.7145 C   0  0  0  0  0  0  0  0  0  0  0  0
  -17.5535   15.9752  -27.9874 C   0  0  0  0  0  0  0  0  0  0  0  0
  -19.1190   17.3232  -32.6720 C   0  0  0  0  0  0  0  0  0  0  0  0
  -23.8671   16.8746  -30.3321 C   0  0  0  0  0  0  0  0  0  0  0  0
  -17.3253   14.8908  -27.1867 C   0  0  0  0  0  0  0  0  0  0  0  0
  -15.2144   16.0310  -28.6230 C   0  0  0  0  0  0  0  0  0  0  0  0
  -21.6722   16.9701  -27.4687 C   0  0  0  0  0  0  0  0  0  0  0  0
  -23.3447   16.1208  -29.1296 C   0  0  0  0  0  0  0  0  0  0  0  0
  -21.9227   15.8437  -29.4479 O   0  0  0  0  0  0  0  0  0  0  0  0
  -20.7132   17.6859  -26.6259 O   0  0  0  0  0  0  0  0  0  0  0  0
  -16.5032   16.4323  -28.8243 C   0  0  0  0  0  0  0  0  0  0  0  0
  1 15  1  0
  1 16  1  0
  2  4  1  0
  2  6  1  0
  2  8  1  0
  3  9  2  0
  3 13  1  0
  4 15  1  0
  4 17  1  0
  5 19  1  0
  6  7  1  0
  7 11  1  0
  8 10  1  0
  9 14  1  0
 10 13  2  0
 10 19  1  0
 12 16  1  0
 14 19  2  0
 15 18  1  0
 16 17  1  0
M  END
$$$$
