
     RDKit          3D

 27 28  0  0  0  0  0  0  0  0999 V2000
    1.4985   -4.1558   15.4308 O   0  0  0  0  0  0  0  0  0  0  0  0
    5.2186   -2.3334   16.9793 O   0  0  0  0  0  0  0  0  0  0  0  0
   -0.5455   -4.0471   19.5233 C   0  0  0  0  0  0  0  0  0  0  0  0
    1.7101   -0.0735   18.5378 C   0  0  0  0  0  0  0  0  0  0  0  0
    0.7696    1.0349   18.9846 C   0  0  0  0  0  0  0  0  0  0  0  0
   -1.0597   -4.8209   15.8048 C   0  0  0  0  0  0  0  0  0  0  0  0
   -1.8828   -3.7804   19.1463 O   0  0  0  0  0  0  0  0  0  0  0  0
    0.0519   -4.6779   18.2320 C   0  0  0  0  0  0  0  0  0  0  0  0
    0.8873   -4.8298   14.4194 C   0  0  0  0  0  0  0  0  0  0  0  0
   -0.8259   -4.1962   17.1369 C   0  0  0  0  0  0  0  0  0  0  0  0
    2.5013   -0.4395   19.8122 C   0  0  0  0  0  0  0  0  0  0  0  0
    1.5373   -0.0986   20.9531 C   0  0  0  0  0  0  0  0  0  0  0  0
    3.1825   -1.8333   20.0728 C   0  0  0  0  0  0  0  0  0  0  0  0
    4.0184   -2.6523   17.3987 C   0  0  0  0  0  0  0  0  0  0  0  0
    3.9310   -3.7732   18.1056 O   0  0  0  0  0  0  0  0  0  0  0  0
    1.3729   -0.6289   22.0635 O   0  0  0  0  0  0  0  0  0  0  0  0
    2.7194   -3.7698   21.5370 F   0  0  0  0  0  0  0  0  0  0  0  0
    2.1243   -2.7812   20.6529 C   0  0  0  0  0  0  0  0  0  0  0  0
    1.5684   -5.3695   13.2925 N   0  0  0  0  0  0  0  0  0  0  0  0
   -1.9839   -3.5636   17.7791 C   0  0  0  0  0  0  0  0  0  0  0  0
   -0.4605   -5.0863   14.5423 N   0  0  0  0  0  0  0  0  0  0  0  0
    0.8647    1.0210   20.4818 O   0  0  0  0  0  0  0  0  0  0  0  0
    2.8534   -2.2617   16.4124 C   0  0  0  0  0  0  0  0  0  0  0  0
    0.7060   -3.2610   20.2388 C   0  0  0  0  0  0  0  0  0  0  0  0
    1.5674   -3.1310   16.4572 C   0  0  0  0  0  0  0  0  0  0  0  0
    3.2782   -2.3233   15.0570 O   0  0  0  0  0  0  0  0  0  0  0  0
   -3.0908   -3.4865   16.8906 C   0  0  0  0  0  0  0  0  0  0  0  0
  1  9  1  0
  1 25  1  0
  2 14  2  0
  3  7  1  0
  3  8  1  0
  3 24  2  0
  4  5  1  0
  4 11  1  0
  5 22  1  0
  6 10  1  0
  6 21  2  3
  7 20  1  0
  8 10  1  0
  9 19  2  0
  9 21  1  0
 10 20  1  0
 11 12  1  0
 11 13  1  0
 12 16  2  0
 12 22  1  0
 13 18  1  0
 14 15  1  0
 14 23  1  0
 17 18  1  0
 18 24  2  0
 20 27  1  0
 23 25  1  0
 23 26  1  0
M  END
$$$$
