
     RDKit          3D

 19 18  0  0  0  0  0  0  0  0999 V2000
    1.7696   -3.3455   18.5626 C   0  0  0  0  0  0  0  0  0  0  0  0
    0.5294    0.4940   20.8667 O   0  0  0  0  0  0  0  0  0  0  0  0
    2.8610   -3.3553   14.6231 O   0  0  0  0  0  0  0  0  0  0  0  0
    4.1213   -1.8558   19.5236 O   0  0  0  0  0  0  0  0  0  0  0  0
    3.2367   -1.2558   18.5387 C   0  0  0  0  0  0  0  0  0  0  0  0
    1.5010    0.3544   18.3518 C   0  0  0  0  0  0  0  0  0  0  0  0
    1.8697   -0.8734   19.2503 N   0  0  0  0  0  0  0  0  0  0  0  0
    1.0018   -2.1404   19.0334 C   0  0  0  0  0  0  0  0  0  0  0  0
    1.8276   -1.1175   21.6249 O   0  0  0  0  0  0  0  0  0  0  0  0
    1.6938   -3.1836   15.4622 C   0  0  0  0  0  0  0  0  0  0  0  0
    0.7211   -4.8454   13.7516 C   0  0  0  0  0  0  0  0  0  0  0  0
    2.3801   -4.7543   17.0906 O   0  0  0  0  0  0  0  0  0  0  0  0
    2.2774   -3.2878   17.0091 C   0  0  0  0  0  0  0  0  0  0  0  0
    3.3165   -1.9929   17.1034 C   0  0  0  0  0  0  0  0  0  0  0  0
   -0.3314   -5.2533   13.1006 O   0  0  0  0  0  0  0  0  0  0  0  0
    4.7176   -2.4723   16.9209 O   0  0  0  0  0  0  0  0  0  0  0  0
    1.8622   -5.5482   13.2053 C   0  0  0  0  0  0  0  0  0  0  0  0
    1.4505   -0.3832   20.6721 C   0  0  0  0  0  0  0  0  0  0  0  0
    0.6372   -4.2644   15.1354 C   0  0  0  0  0  0  0  0  0  0  0  0
  1  8  1  0
  1 13  1  0
  2 18  2  0
  3 10  1  0
  4  5  1  0
  5 14  1  0
  6  7  1  0
  7  8  1  0
  7 18  1  0
  9 18  1  0
 10 13  1  0
 10 19  1  0
 11 15  1  0
 11 17  1  0
 11 19  1  0
 12 13  1  0
 13 14  1  0
 14 16  1  0
M  END
$$$$
