
     RDKit          3D

 30 32  0  0  0  0  0  0  0  0999 V2000
  -23.4468   16.1463  -28.2279 O   0  0  0  0  0  0  0  0  0  0  0  0
  -17.9304   14.4708  -29.3500 C   0  0  0  0  0  0  0  0  0  0  0  0
  -16.8298   15.1401  -32.8910 C   0  0  0  0  0  0  0  0  0  0  0  0
  -17.9504   13.3986  -31.7907 C   0  0  0  0  0  0  0  0  0  0  0  0
  -16.2646   16.0246  -28.2951 C   0  0  0  0  0  0  0  0  0  0  0  0
  -20.3924   17.3667  -25.5689 C   0  0  0  0  0  0  0  0  0  0  0  0
  -15.3319   16.2700  -27.2618 C   0  0  0  0  0  0  0  0  0  0  0  0
  -17.5710   16.7448  -30.2736 C   0  0  0  0  0  0  0  0  0  0  0  0
  -16.5156   17.1551  -29.1844 C   0  0  0  0  0  0  0  0  0  0  0  0
  -17.9841   17.2889  -25.1398 O   0  0  0  0  0  0  0  0  0  0  0  0
  -15.2925   13.8729  -26.7850 C   0  0  0  0  0  0  0  0  0  0  0  0
  -14.8877   15.1792  -26.5202 C   0  0  0  0  0  0  0  0  0  0  0  0
  -16.7098   16.6033  -32.8266 C   0  0  0  0  0  0  0  0  0  0  0  0
  -21.1854   17.7434  -26.8144 C   0  0  0  0  0  0  0  0  0  0  0  0
  -17.1687   14.5969  -31.5728 N   0  0  0  0  0  0  0  0  0  0  0  0
  -19.0262   17.8162  -25.8368 C   0  0  0  0  0  0  0  0  0  0  0  0
  -16.7053   18.7823  -31.4997 C   0  0  0  0  0  0  0  0  0  0  0  0
  -16.2814   13.6689  -27.7133 C   0  0  0  0  0  0  0  0  0  0  0  0
  -17.1098   17.4017  -31.6073 C   0  0  0  0  0  0  0  0  0  0  0  0
  -16.1890   19.2780  -32.6066 O   0  0  0  0  0  0  0  0  0  0  0  0
  -21.9868   16.8225  -29.9195 C   0  0  0  0  0  0  0  0  0  0  0  0
  -16.9854   19.5475  -30.4403 N   0  0  0  0  0  0  0  0  0  0  0  0
  -19.3148   13.7463  -31.6746 O   0  0  0  0  0  0  0  0  0  0  0  0
  -22.3186   16.4295  -28.5885 C   0  0  0  0  0  0  0  0  0  0  0  0
  -20.3189   18.7339  -27.5526 C   0  0  0  0  0  0  0  0  0  0  0  0
  -21.3591   16.5544  -27.6025 N   0  0  0  0  0  0  0  0  0  0  0  0
  -18.9905   18.5932  -26.9921 N   0  0  0  0  0  0  0  0  0  0  0  0
  -17.7327   15.2910  -30.5446 C   0  0  0  0  0  0  0  0  0  0  0  0
  -18.8346   17.2292  -29.7724 O   0  0  0  0  0  0  0  0  0  0  0  0
  -16.8178   14.7188  -28.4694 C   0  0  0  0  0  0  0  0  0  0  0  0
  1 24  2  0
  2 28  1  0
  2 30  1  0
  3 13  1  0
  3 15  1  0
  4 15  1  0
  4 23  1  0
  5  7  1  0
  5  9  1  0
  5 30  1  0
  6 14  1  0
  6 16  1  0
  7 12  2  0
  8  9  1  0
  8 19  1  0
  8 28  1  0
  8 29  1  0
 10 16  2  0
 11 12  1  0
 11 18  2  0
 13 19  2  0
 14 25  1  0
 14 26  1  0
 15 28  1  0
 16 27  1  0
 17 19  1  0
 17 20  2  0
 17 22  1  0
 18 30  1  0
 21 24  1  0
 24 26  1  0
 25 27  1  0
M  END
$$$$
