
     RDKit          3D

 25 28  0  0  0  0  0  0  0  0999 V2000
  -16.2724   13.4043  -27.9256 C   0  0  0  0  0  0  0  0  0  0  0  0
  -21.1565   17.6939  -31.8785 C   0  0  0  0  0  0  0  0  0  0  0  0
  -14.9857   15.0161  -26.6110 C   0  0  0  0  0  0  0  0  0  0  0  0
  -18.2257   14.9976  -28.1252 C   0  0  0  0  0  0  0  0  0  0  0  0
  -23.1645   15.8861  -27.1365 C   0  0  0  0  0  0  0  0  0  0  0  0
  -18.9884   15.7573  -28.9774 C   0  0  0  0  0  0  0  0  0  0  0  0
  -21.8769   16.0164  -27.4678 C   0  0  0  0  0  0  0  0  0  0  0  0
  -24.1240   16.7224  -27.6989 C   0  0  0  0  0  0  0  0  0  0  0  0
  -22.0390   18.5946  -31.5223 N   0  0  0  0  0  0  0  0  0  0  0  0
  -23.8008   17.6715  -28.6074 C   0  0  0  0  0  0  0  0  0  0  0  0
  -22.5019   17.7425  -29.1812 C   0  0  0  0  0  0  0  0  0  0  0  0
  -15.3468   13.5706  -26.8783 C   0  0  0  0  0  0  0  0  0  0  0  0
  -24.6908   18.5571  -28.9550 F   0  0  0  0  0  0  0  0  0  0  0  0
  -18.9306   17.0059  -32.4477 C   0  0  0  0  0  0  0  0  0  0  0  0
  -20.2017   16.4315  -28.8429 N   0  0  0  0  0  0  0  0  0  0  0  0
  -16.4965   15.0796  -29.7160 C   0  0  0  0  0  0  0  0  0  0  0  0
  -22.3513   18.8142  -30.1477 C   0  0  0  0  0  0  0  0  0  0  0  0
  -19.4165   16.5235  -31.1781 N   0  0  0  0  0  0  0  0  0  0  0  0
  -21.4984   16.7969  -28.6325 C   0  0  0  0  0  0  0  0  0  0  0  0
  -20.9078   15.5090  -26.6868 O   0  0  0  0  0  0  0  0  0  0  0  0
  -20.0167   18.0341  -32.7927 C   0  0  0  0  0  0  0  0  0  0  0  0
  -20.8323   16.4160  -31.2646 C   0  0  0  0  0  0  0  0  0  0  0  0
  -17.0059   14.5448  -28.5654 C   0  0  0  0  0  0  0  0  0  0  0  0
  -18.5118   16.0204  -30.2270 C   0  0  0  0  0  0  0  0  0  0  0  0
  -17.2248   15.8065  -30.5532 N   0  0  0  0  0  0  0  0  0  0  0  0
  1 12  1  0
  1 23  1  0
  2  9  1  0
  2 21  1  0
  2 22  1  0
  3 12  1  0
  4  6  2  0
  4 23  1  0
  5  7  1  0
  5  8  2  0
  6 15  1  0
  6 24  1  0
  7 19  2  0
  7 20  1  0
  8 10  1  0
  9 17  1  0
 10 11  2  0
 10 13  1  0
 11 17  1  0
 11 19  1  0
 14 18  1  0
 14 21  1  0
 15 19  1  0
 16 23  1  0
 16 25  2  0
 18 22  1  0
 18 24  1  0
 24 25  1  0
M  END
$$$$
