
     RDKit          3D

 28 30  0  0  0  0  0  0  0  0999 V2000
   32.1127   33.2394  103.7213 N   0  0  0  0  0  0  0  0  0  0  0  0
   29.0558   35.8152  103.6704 C   0  0  0  0  0  0  0  0  0  0  0  0
   23.7290   32.6472  106.1670 C   0  0  0  0  0  0  0  0  0  0  0  0
   25.1452   35.6576  101.5877 C   0  0  0  0  0  0  0  0  0  0  0  0
   24.4467   34.0064  108.0565 C   0  0  0  0  0  0  0  0  0  0  0  0
   26.6641   34.9878  103.2014 C   0  0  0  0  0  0  0  0  0  0  0  0
   29.7940   34.5373  104.2343 C   0  0  0  0  0  0  0  0  0  0  0  0
   32.0285   33.7351  105.0233 C   0  0  0  0  0  0  0  0  0  0  0  0
   25.1164   33.1448  104.2150 C   0  0  0  0  0  0  0  0  0  0  0  0
   28.4728   34.2063  104.8775 C   0  0  0  0  0  0  0  0  0  0  0  0
   24.5741   36.4911  100.5905 C   0  0  0  0  0  0  0  0  0  0  0  0
   24.6632   33.4872  105.5350 O   0  0  0  0  0  0  0  0  0  0  0  0
   27.8572   35.0826  103.9863 C   0  0  0  0  0  0  0  0  0  0  0  0
   31.4620   33.6943  102.6323 C   0  0  0  0  0  0  0  0  0  0  0  0
   23.1884   33.6407  107.3015 C   0  0  0  0  0  0  0  0  0  0  0  0
   25.4637   34.2194  103.3341 C   0  0  0  0  0  0  0  0  0  0  0  0
   33.1351   33.9848  105.5857 O   0  0  0  0  0  0  0  0  0  0  0  0
   30.0730   33.7176  103.0438 C   0  0  0  0  0  0  0  0  0  0  0  0
   31.0111   34.8186  105.0072 C   0  0  0  0  0  0  0  0  0  0  0  0
   23.5228   36.0366   99.7337 C   0  0  0  0  0  0  0  0  0  0  0  0
   24.6171   34.6546  102.3257 O   0  0  0  0  0  0  0  0  0  0  0  0
   32.2640   33.8153  101.6015 O   0  0  0  0  0  0  0  0  0  0  0  0
   29.2646   32.8372  102.6356 O   0  0  0  0  0  0  0  0  0  0  0  0
   29.3488   36.9206  103.5067 O   0  0  0  0  0  0  0  0  0  0  0  0
   31.7069   35.9608  104.6615 O   0  0  0  0  0  0  0  0  0  0  0  0
   25.0180   37.6628  100.8256 O   0  0  0  0  0  0  0  0  0  0  0  0
   25.7893   34.0173  107.9782 O   0  0  0  0  0  0  0  0  0  0  0  0
   26.4655   35.8148  102.0547 C   0  0  0  0  0  0  0  0  0  0  0  0
  1  8  1  0
  1 14  1  0
  2  7  1  0
  2 13  1  0
  2 24  2  0
  3 12  1  0
  3 15  1  0
  4 11  1  0
  4 21  1  0
  4 28  1  0
  5 15  1  0
  5 27  1  0
  6 13  1  0
  6 16  2  0
  6 28  1  0
  7 10  1  0
  7 18  1  0
  7 19  1  0
  8 17  1  0
  8 19  1  0
  9 12  1  0
  9 16  1  0
 10 13  1  0
 11 20  1  0
 11 26  2  0
 14 18  1  0
 14 22  2  0
 16 21  1  0
 18 23  2  0
 19 25  1  0
M  END
$$$$
