
     RDKit          3D

 31 33  0  0  0  0  0  0  0  0999 V2000
   31.3671   33.5995  103.0012 C   0  0  0  0  0  0  0  0  0  0  0  0
   26.8351   34.3695  104.8714 C   0  0  0  0  0  0  0  0  0  0  0  0
   24.6084   34.0105  103.7940 C   0  0  0  0  0  0  0  0  0  0  0  0
   23.4613   36.2123   99.0417 N   0  0  0  0  0  0  0  0  0  0  0  0
   25.1285   37.0385  100.5360 C   0  0  0  0  0  0  0  0  0  0  0  0
   23.8873   32.6334  105.4025 N   0  0  0  0  0  0  0  0  0  0  0  0
   22.7165   33.5266  107.3833 C   0  0  0  0  0  0  0  0  0  0  0  0
   26.0890   36.4216  101.3175 C   0  0  0  0  0  0  0  0  0  0  0  0
   27.8008   35.5885  103.2464 N   0  0  0  0  0  0  0  0  0  0  0  0
   24.1409   34.0254  107.6511 C   0  0  0  0  0  0  0  0  0  0  0  0
   25.0877   33.7283  105.1288 C   0  0  0  0  0  0  0  0  0  0  0  0
   32.2201   33.7271  102.0231 O   0  0  0  0  0  0  0  0  0  0  0  0
   25.4358   34.8155  102.9776 C   0  0  0  0  0  0  0  0  0  0  0  0
   30.1351   32.8445  102.7054 C   0  0  0  0  0  0  0  0  0  0  0  0
   20.5034   32.6217  106.8032 C   0  0  0  0  0  0  0  0  0  0  0  0
   30.2604   36.9049  103.6259 O   0  0  0  0  0  0  0  0  0  0  0  0
   32.9933   33.8373  105.1707 O   0  0  0  0  0  0  0  0  0  0  0  0
   26.6420   34.9597  103.6204 C   0  0  0  0  0  0  0  0  0  0  0  0
   25.0981   35.4763  101.7825 C   0  0  0  0  0  0  0  0  0  0  0  0
   26.4122   33.3950  107.6320 O   0  0  0  0  0  0  0  0  0  0  0  0
   28.2160   34.4912  105.1737 C   0  0  0  0  0  0  0  0  0  0  0  0
   30.1333   35.7406  103.9500 C   0  0  0  0  0  0  0  0  0  0  0  0
   25.2986   33.8609  106.7711 C   0  0  0  0  0  0  0  0  0  0  0  0
   31.1712   34.6927  104.0112 C   0  0  0  0  0  0  0  0  0  0  0  0
   31.7199   34.2621  105.3702 C   0  0  0  0  0  0  0  0  0  0  0  0
   24.5696   34.4719  108.9865 O   0  0  0  0  0  0  0  0  0  0  0  0
   21.4025   33.1306  107.8625 O   0  0  0  0  0  0  0  0  0  0  0  0
   22.5556   33.2526  105.8307 C   0  0  0  0  0  0  0  0  0  0  0  0
   24.1423   35.8836  100.2128 C   0  0  0  0  0  0  0  0  0  0  0  0
   28.7350   35.2804  104.1701 C   0  0  0  0  0  0  0  0  0  0  0  0
   21.4605   32.2249  105.6625 C   0  0  0  0  0  0  0  0  0  0  0  0
  1 12  1  0
  1 14  1  0
  1 24  1  0
  2 18  1  0
  2 21  1  0
  3 11  1  0
  3 13  1  0
  4 29  1  0
  5  8  1  0
  5 29  1  0
  6 11  1  0
  6 28  1  0
  7 10  1  0
  7 27  1  0
  7 28  1  0
  8 19  1  0
  9 18  1  0
  9 30  1  0
 10 23  1  0
 10 26  1  0
 11 23  1  0
 13 18  2  3
 13 19  1  0
 15 27  1  0
 15 31  1  0
 16 22  2  0
 17 25  1  0
 20 23  1  0
 21 30  1  0
 22 24  1  0
 22 30  1  0
 24 25  1  0
 28 31  1  0
M  END
$$$$
