
     RDKit          3D

 27 29  0  0  0  0  0  0  0  0999 V2000
   26.8429   36.1237  102.1629 C   0  0  0  0  0  0  0  0  0  0  0  0
   30.7716   34.6767  103.9924 C   0  0  0  0  0  0  0  0  0  0  0  0
   25.8815   34.3538  106.4320 C   0  0  0  0  0  0  0  0  0  0  0  0
   31.1743   35.8304  104.1097 C   0  0  0  0  0  0  0  0  0  0  0  0
   23.3150   34.5628  106.4828 C   0  0  0  0  0  0  0  0  0  0  0  0
   31.7280   34.2269  105.2976 C   0  0  0  0  0  0  0  0  0  0  0  0
   23.6981   33.5528  107.5673 C   0  0  0  0  0  0  0  0  0  0  0  0
   30.3490   32.6740  102.7155 C   0  0  0  0  0  0  0  0  0  0  0  0
   26.4559   36.8230  101.1154 C   0  0  0  0  0  0  0  0  0  0  0  0
   25.3778   36.7574  100.4852 C   0  0  0  0  0  0  0  0  0  0  0  0
   26.0931   34.6838  103.9766 C   0  0  0  0  0  0  0  0  0  0  0  0
   32.1260   33.8500  101.9229 C   0  0  0  0  0  0  0  0  0  0  0  0
   24.8085   34.1341  108.5977 C   0  0  0  0  0  0  0  0  0  0  0  0
   24.5058   35.8473  100.8043 C   0  0  0  0  0  0  0  0  0  0  0  0
   31.4587   33.5810  103.1682 C   0  0  0  0  0  0  0  0  0  0  0  0
   25.8892   35.2694  102.6929 C   0  0  0  0  0  0  0  0  0  0  0  0
   24.7548   34.9663  105.9782 O   0  0  0  0  0  0  0  0  0  0  0  0
   29.5379   34.2821  104.5672 C   0  0  0  0  0  0  0  0  0  0  0  0
   27.2945   34.8156  104.6562 N   0  0  0  0  0  0  0  0  0  0  0  0
   27.1613   34.3596  105.9151 C   0  0  0  0  0  0  0  0  0  0  0  0
   24.8165   35.0915  102.0340 C   0  0  0  0  0  0  0  0  0  0  0  0
   28.5191   35.2975  104.2859 C   0  0  0  0  0  0  0  0  0  0  0  0
   32.3611   33.4601  104.2344 O   0  0  0  0  0  0  0  0  0  0  0  0
   23.4089   35.6728  100.0170 O   0  0  0  0  0  0  0  0  0  0  0  0
   28.7318   36.4485  104.0231 O   0  0  0  0  0  0  0  0  0  0  0  0
   24.9840   34.3170  104.8040 C   0  0  0  0  0  0  0  0  0  0  0  0
   26.0697   34.2589  107.9534 C   0  0  0  0  0  0  0  0  0  0  0  0
  1  9  1  0
  1 16  1  0
  2  4  1  0
  2  6  1  0
  2 15  1  0
  2 18  1  0
  3 17  1  0
  3 20  2  0
  3 27  1  0
  5  7  1  0
  6 23  1  0
  7 13  1  0
  8 15  1  0
  9 10  2  0
 10 14  1  0
 11 16  1  0
 11 19  1  0
 11 26  1  0
 12 15  1  0
 13 27  1  0
 14 21  1  0
 14 24  1  0
 15 23  1  0
 16 21  2  0
 17 26  1  0
 18 22  1  0
 19 20  1  0
 19 22  1  0
 22 25  2  0
M  END
$$$$
