
     RDKit          3D

 26 28  0  0  0  0  0  0  0  0999 V2000
   24.0948   33.8700  106.7943 C   0  0  0  0  0  0  0  0  0  0  0  0
   27.8475   35.0145  104.2139 C   0  0  0  0  0  0  0  0  0  0  0  0
   23.5442   36.2483   99.0825 O   0  0  0  0  0  0  0  0  0  0  0  0
   25.6430   34.3765  104.9959 C   0  0  0  0  0  0  0  0  0  0  0  0
   31.5494   34.4498  104.1468 C   0  0  0  0  0  0  0  0  0  0  0  0
   25.3987   35.6364  101.6466 C   0  0  0  0  0  0  0  0  0  0  0  0
   26.9993   34.4869  105.1231 O   0  0  0  0  0  0  0  0  0  0  0  0
   26.1798   33.2969  107.7580 O   0  0  0  0  0  0  0  0  0  0  0  0
   26.0119   36.7747  101.2199 C   0  0  0  0  0  0  0  0  0  0  0  0
   25.8845   35.0831  102.8127 C   0  0  0  0  0  0  0  0  0  0  0  0
   24.6040   34.9809  105.8255 C   0  0  0  0  0  0  0  0  0  0  0  0
   30.2478   36.6240  103.6963 O   0  0  0  0  0  0  0  0  0  0  0  0
   25.0921   33.9176  107.8753 C   0  0  0  0  0  0  0  0  0  0  0  0
   29.1544   34.4986  103.9494 N   0  0  0  0  0  0  0  0  0  0  0  0
   25.2047   37.1747  100.3913 N   0  0  0  0  0  0  0  0  0  0  0  0
   30.3202   35.2824  104.1836 C   0  0  0  0  0  0  0  0  0  0  0  0
   32.3618   33.7208  101.9762 O   0  0  0  0  0  0  0  0  0  0  0  0
   27.2094   35.5148  103.0647 C   0  0  0  0  0  0  0  0  0  0  0  0
   24.7895   34.5907  108.8553 O   0  0  0  0  0  0  0  0  0  0  0  0
   24.4175   35.3663  100.9219 C   0  0  0  0  0  0  0  0  0  0  0  0
   32.3964   34.4616  105.1931 O   0  0  0  0  0  0  0  0  0  0  0  0
   31.6358   33.3774  103.1538 C   0  0  0  0  0  0  0  0  0  0  0  0
   30.3873   32.7635  102.6885 C   0  0  0  0  0  0  0  0  0  0  0  0
   29.1745   33.3567  103.0866 C   0  0  0  0  0  0  0  0  0  0  0  0
   25.0660   34.2981  103.6687 C   0  0  0  0  0  0  0  0  0  0  0  0
   24.2628   36.2602  100.0322 N   0  0  0  0  0  0  0  0  0  0  0  0
  1 11  1  0
  1 13  1  0
  2  7  1  0
  2 14  1  0
  2 18  1  0
  3 26  1  0
  4  7  1  0
  4 11  1  0
  4 25  1  0
  5 16  1  0
  5 21  1  0
  5 22  1  0
  6  9  1  0
  6 10  1  0
  6 20  1  0
  8 13  2  0
  9 15  1  0
 10 18  2  0
 10 25  1  0
 12 16  2  0
 13 19  1  0
 14 16  1  0
 14 24  1  0
 15 26  1  0
 17 22  1  0
 20 26  1  0
 22 23  1  0
 23 24  2  0
M  END
$$$$
