
     RDKit          3D

 18 18  0  0  0  0  0  0  0  0999 V2000
   25.8982   36.4633  100.8661 C   0  0  0  0  0  0  0  0  0  0  0  0
   25.9072   35.0830  103.1229 C   0  0  0  0  0  0  0  0  0  0  0  0
   24.9604   35.9796  105.3018 O   0  0  0  0  0  0  0  0  0  0  0  0
   26.5863   35.6993  101.9377 C   0  0  0  0  0  0  0  0  0  0  0  0
   29.9182   33.2145  103.0068 C   0  0  0  0  0  0  0  0  0  0  0  0
   31.9539   34.1145  104.8612 C   0  0  0  0  0  0  0  0  0  0  0  0
   24.4662   36.1315  100.7305 C   0  0  0  0  0  0  0  0  0  0  0  0
   32.1980   33.2373  103.6232 C   0  0  0  0  0  0  0  0  0  0  0  0
   29.6866   36.8833  103.6781 S   0  0  0  0  0  0  0  0  0  0  0  0
   31.4693   35.3361  104.4160 N   0  0  0  0  0  0  0  0  0  0  0  0
   23.7412   36.3316   99.5642 N   0  0  0  0  0  0  0  0  0  0  0  0
   31.2559   33.3579  102.6729 N   0  0  0  0  0  0  0  0  0  0  0  0
   28.0429   34.3920  104.2633 N   0  0  0  0  0  0  0  0  0  0  0  0
   25.8692   35.0871  105.5990 C   0  0  0  0  0  0  0  0  0  0  0  0
   30.2336   35.5177  103.9008 C   0  0  0  0  0  0  0  0  0  0  0  0
   29.4027   34.2705  103.8843 C   0  0  0  0  0  0  0  0  0  0  0  0
   25.7239   34.1245  106.3799 O   0  0  0  0  0  0  0  0  0  0  0  0
   26.8068   35.0556  104.4026 C   0  0  0  0  0  0  0  0  0  0  0  0
  1  4  1  0
  1  7  1  0
  2  4  1  0
  2 18  1  0
  3 14  2  0
  5 12  1  0
  5 16  1  0
  6  8  1  0
  6 10  1  0
  7 11  1  0
  8 12  1  0
  9 15  2  0
 10 15  1  0
 13 16  1  0
 13 18  1  0
 14 17  1  0
 14 18  1  0
 15 16  1  0
M  END
$$$$
