
     RDKit          3D

 25 27  0  0  0  0  0  0  0  0999 V2000
   26.6216   34.0012  107.4033 O   0  0  0  0  0  0  0  0  0  0  0  0
   30.4512   36.9160  103.6748 O   0  0  0  0  0  0  0  0  0  0  0  0
   24.4655   33.3891  106.3967 C   0  0  0  0  0  0  0  0  0  0  0  0
   32.4570   34.1086  105.1412 O   0  0  0  0  0  0  0  0  0  0  0  0
   25.2002   34.0169  104.1413 C   0  0  0  0  0  0  0  0  0  0  0  0
   30.1720   34.7827  104.6146 C   0  0  0  0  0  0  0  0  0  0  0  0
   29.7393   35.9399  103.7225 C   0  0  0  0  0  0  0  0  0  0  0  0
   31.4101   33.3042  103.0331 C   0  0  0  0  0  0  0  0  0  0  0  0
   31.4200   34.0039  104.3098 C   0  0  0  0  0  0  0  0  0  0  0  0
   25.9646   34.9665  103.2907 C   0  0  0  0  0  0  0  0  0  0  0  0
   23.3942   32.4804  104.4285 C   0  0  0  0  0  0  0  0  0  0  0  0
   25.7831   37.3307  101.1164 O   0  0  0  0  0  0  0  0  0  0  0  0
   27.6420   34.8668  105.0095 C   0  0  0  0  0  0  0  0  0  0  0  0
   24.2821   33.1579  103.6252 C   0  0  0  0  0  0  0  0  0  0  0  0
   24.1578   36.1330  100.1363 N   0  0  0  0  0  0  0  0  0  0  0  0
   25.1274   36.2943  101.0557 C   0  0  0  0  0  0  0  0  0  0  0  0
   28.9307   34.2468  105.1302 C   0  0  0  0  0  0  0  0  0  0  0  0
   27.2762   35.4455  103.7389 C   0  0  0  0  0  0  0  0  0  0  0  0
   25.3750   34.0364  105.5581 C   0  0  0  0  0  0  0  0  0  0  0  0
   26.5746   34.6266  106.0605 C   0  0  0  0  0  0  0  0  0  0  0  0
   28.4018   36.1059  103.1711 C   0  0  0  0  0  0  0  0  0  0  0  0
   32.2224   33.7123  102.0566 O   0  0  0  0  0  0  0  0  0  0  0  0
   30.2747   32.6375  102.6998 O   0  0  0  0  0  0  0  0  0  0  0  0
   23.4553   32.6147  105.8285 C   0  0  0  0  0  0  0  0  0  0  0  0
   25.2856   35.3248  102.1206 C   0  0  0  0  0  0  0  0  0  0  0  0
  1 20  1  0
  2  7  2  0
  3 19  2  0
  3 24  1  0
  4  9  1  0
  5 10  1  0
  5 14  2  0
  5 19  1  0
  6  7  1  0
  6  9  1  0
  6 17  1  0
  7 21  1  0
  8  9  1  0
  8 22  2  0
  8 23  1  0
 10 18  1  0
 10 25  1  0
 11 14  1  0
 11 24  2  0
 12 16  2  0
 13 17  1  0
 13 18  1  0
 13 20  1  0
 15 16  1  0
 16 25  1  0
 18 21  1  0
 19 20  1  0
M  END
$$$$
