
     RDKit          3D

 25 27  0  0  0  0  0  0  0  0999 V2000
   25.8619   34.4213  105.7862 N   0  0  0  0  0  0  0  0  0  0  0  0
   24.3906   35.5696  100.4368 C   0  0  0  0  0  0  0  0  0  0  0  0
   27.2367   34.5321  105.5338 C   0  0  0  0  0  0  0  0  0  0  0  0
   31.4082   33.7026  103.0926 C   0  0  0  0  0  0  0  0  0  0  0  0
   25.6056   34.3735  108.1845 O   0  0  0  0  0  0  0  0  0  0  0  0
   27.0680   35.6859  103.1889 C   0  0  0  0  0  0  0  0  0  0  0  0
   23.4946   36.2699   98.7352 N   0  0  0  0  0  0  0  0  0  0  0  0
   25.8731   34.7486  103.1271 C   0  0  0  0  0  0  0  0  0  0  0  0
   23.7672   36.4568   99.7578 C   0  0  0  0  0  0  0  0  0  0  0  0
   30.0469   35.6516  103.6249 C   0  0  0  0  0  0  0  0  0  0  0  0
   30.2961   32.8999  102.9099 N   0  0  0  0  0  0  0  0  0  0  0  0
   23.8141   33.3753  106.7220 C   0  0  0  0  0  0  0  0  0  0  0  0
   29.1046   33.4276  103.2067 C   0  0  0  0  0  0  0  0  0  0  0  0
   24.5659   32.9063  104.3367 C   0  0  0  0  0  0  0  0  0  0  0  0
   25.3711   36.1299  101.3122 C   0  0  0  0  0  0  0  0  0  0  0  0
   24.9619   35.6951  102.5687 O   0  0  0  0  0  0  0  0  0  0  0  0
   27.8273   35.2362  104.3830 C   0  0  0  0  0  0  0  0  0  0  0  0
   29.9141   36.8946  103.6887 O   0  0  0  0  0  0  0  0  0  0  0  0
   25.2176   33.9345  106.9903 C   0  0  0  0  0  0  0  0  0  0  0  0
   31.1420   34.9689  103.4048 N   0  0  0  0  0  0  0  0  0  0  0  0
   32.4634   33.3583  103.0374 O   0  0  0  0  0  0  0  0  0  0  0  0
   28.9814   34.6864  103.7284 N   0  0  0  0  0  0  0  0  0  0  0  0
   25.9683   37.1666  101.1277 O   0  0  0  0  0  0  0  0  0  0  0  0
   25.2142   34.3015  104.4612 C   0  0  0  0  0  0  0  0  0  0  0  0
   23.8077   32.5020  105.5336 O   0  0  0  0  0  0  0  0  0  0  0  0
  1  3  1  0
  1 19  1  0
  1 24  1  0
  2  9  1  0
  2 15  1  0
  3 17  1  0
  4 11  1  0
  4 20  1  0
  4 21  2  0
  5 19  2  0
  6  8  1  0
  6 17  1  0
  7  9  2  0
  8 16  1  0
  8 24  1  0
 10 18  2  0
 10 20  1  0
 10 22  1  0
 11 13  2  0
 12 19  1  0
 12 25  1  0
 13 22  1  0
 14 24  1  0
 14 25  1  0
 15 16  1  0
 15 23  2  0
 17 22  1  0
M  END
$$$$
