
     RDKit          3D

 24 24  0  0  0  0  0  0  0  0999 V2000
   29.0929   33.9811  103.4381 C   0  0  0  0  0  0  0  0  0  0  0  0
   30.5947   32.2009  102.5141 F   0  0  0  0  0  0  0  0  0  0  0  0
   28.2329   36.1395  103.6130 C   0  0  0  0  0  0  0  0  0  0  0  0
   32.3214   32.9440  103.7120 N   0  0  0  0  0  0  0  0  0  0  0  0
   24.8185   36.6049  100.6440 C   0  0  0  0  0  0  0  0  0  0  0  0
   31.3515   33.2302  102.8100 C   0  0  0  0  0  0  0  0  0  0  0  0
   30.9442   35.2455  104.2052 C   0  0  0  0  0  0  0  0  0  0  0  0
   24.9730   35.0477  102.7498 C   0  0  0  0  0  0  0  0  0  0  0  0
   30.3856   34.1902  103.4557 C   0  0  0  0  0  0  0  0  0  0  0  0
   26.8572   34.1456  104.1743 C   0  0  0  0  0  0  0  0  0  0  0  0
   24.8495   34.8897  105.2977 C   0  0  0  0  0  0  0  0  0  0  0  0
   25.5109   35.6446  101.5144 C   0  0  0  0  0  0  0  0  0  0  0  0
   25.5297   34.5486  103.9744 C   0  0  0  0  0  0  0  0  0  0  0  0
   31.9397   34.9664  105.1376 F   0  0  0  0  0  0  0  0  0  0  0  0
   28.0698   34.8284  103.7207 N   0  0  0  0  0  0  0  0  0  0  0  0
   26.2805   33.8829  107.4277 O   0  0  0  0  0  0  0  0  0  0  0  0
   31.9813   33.7814  101.7622 O   0  0  0  0  0  0  0  0  0  0  0  0
   24.1231   36.0782  105.0695 O   0  0  0  0  0  0  0  0  0  0  0  0
   25.2402   37.8461  100.9397 O   0  0  0  0  0  0  0  0  0  0  0  0
   23.7622   36.2502   99.9110 O   0  0  0  0  0  0  0  0  0  0  0  0
   25.2073   34.3430  106.7056 C   0  0  0  0  0  0  0  0  0  0  0  0
   29.2348   36.9391  103.6384 N   0  0  0  0  0  0  0  0  0  0  0  0
   30.3972   36.4863  103.9628 C   0  0  0  0  0  0  0  0  0  0  0  0
   24.1669   34.5151  107.5955 O   0  0  0  0  0  0  0  0  0  0  0  0
  1  9  1  0
  1 15  1  0
  2  6  1  0
  3 15  1  0
  3 22  2  0
  4  6  1  0
  5 12  1  0
  5 19  2  0
  5 20  1  0
  6  9  1  0
  6 17  1  0
  7  9  1  0
  7 14  1  0
  7 23  1  0
  8 12  1  0
  8 13  1  0
 10 13  1  0
 10 15  1  0
 11 13  1  0
 11 18  1  0
 11 21  1  0
 16 21  2  0
 21 24  1  0
 22 23  1  0
M  END
$$$$
