
     RDKit          3D

  9  8  0  0  0  0  0  0  0  0999 V2000
  -11.8767   -6.8959    5.9025 O   0  0  0  0  0  0  0  0  0  0  0  0
  -15.0093   -6.1240    4.3722 O   0  0  0  0  0  0  0  0  0  0  0  0
  -12.4716   -6.5608    4.8025 C   0  0  0  0  0  0  0  0  0  0  0  0
  -11.9345   -6.7448    3.6773 O   0  0  0  0  0  0  0  0  0  0  0  0
  -17.3295   -6.2109    3.4214 C   0  0  0  0  0  0  0  0  0  0  0  0
  -13.8128   -6.1040    4.9654 C   0  0  0  0  0  0  0  0  0  0  0  0
  -17.3820   -6.3341    4.8571 C   0  0  0  0  0  0  0  0  0  0  0  0
  -18.4329   -6.4902    5.6482 O   0  0  0  0  0  0  0  0  0  0  0  0
  -16.0820   -6.0741    5.4837 C   0  0  0  0  0  0  0  0  0  0  0  0
  1  3  2  0
  2  6  1  0
  2  9  1  0
  3  4  1  0
  3  6  1  0
  5  7  1  0
  7  8  1  0
  7  9  1  0
M  END
$$$$
