
     RDKit          3D

  8  7  0  0  0  0  0  0  0  0999 V2000
  -14.7629   -6.1336    4.0849 C   0  0  0  0  0  0  0  0  0  0  0  0
  -17.0437   -6.0708    3.4888 O   0  0  0  0  0  0  0  0  0  0  0  0
  -12.5463   -6.4453    5.1338 C   0  0  0  0  0  0  0  0  0  0  0  0
  -12.1760   -6.7773    3.9967 O   0  0  0  0  0  0  0  0  0  0  0  0
  -12.0179   -6.9191    6.1746 O   0  0  0  0  0  0  0  0  0  0  0  0
  -16.2179   -6.1022    4.4535 C   0  0  0  0  0  0  0  0  0  0  0  0
  -13.8953   -5.8194    5.3188 C   0  0  0  0  0  0  0  0  0  0  0  0
  -16.4745   -6.1171    5.7248 O   0  0  0  0  0  0  0  0  0  0  0  0
  1  6  1  0
  1  7  1  0
  2  6  2  0
  3  4  2  0
  3  5  1  0
  3  7  1  0
  6  8  1  0
M  END
$$$$
