
     RDKit          3D

 13 13  0  0  0  0  0  0  0  0999 V2000
  -21.2539   -6.2444    4.3655 C   0  0  0  0  0  0  0  0  0  0  0  0
  -13.7356   -6.4857    4.6510 C   0  0  0  0  0  0  0  0  0  0  0  0
  -18.9569   -6.1973    4.1093 C   0  0  0  0  0  0  0  0  0  0  0  0
  -12.3208   -6.5989    4.8994 C   0  0  0  0  0  0  0  0  0  0  0  0
  -11.5127   -6.7884    3.7960 N   0  0  0  0  0  0  0  0  0  0  0  0
  -14.4626   -5.5754    5.2418 C   0  0  0  0  0  0  0  0  0  0  0  0
  -19.2131   -7.5225    4.4328 C   0  0  0  0  0  0  0  0  0  0  0  0
  -17.6989   -5.7143    3.6785 C   0  0  0  0  0  0  0  0  0  0  0  0
  -20.7574   -7.5414    4.5917 C   0  0  0  0  0  0  0  0  0  0  0  0
  -16.4228   -5.9947    4.0446 C   0  0  0  0  0  0  0  0  0  0  0  0
  -20.0922   -5.3961    4.0699 C   0  0  0  0  0  0  0  0  0  0  0  0
  -15.7183   -5.4085    4.9932 N   0  0  0  0  0  0  0  0  0  0  0  0
  -11.8824   -6.8360    6.0283 O   0  0  0  0  0  0  0  0  0  0  0  0
  1  9  1  0
  1 11  1  0
  2  4  1  0
  2  6  1  0
  3  7  1  0
  3  8  1  0
  3 11  1  0
  4  5  1  0
  4 13  2  0
  6 12  2  3
  7  9  1  0
  8 10  1  0
 10 12  1  0
M  END
$$$$
