
     RDKit          3D

 12 12  0  0  0  0  0  0  0  0999 V2000
   13.5088   34.3911   14.0909 C   0  0  0  0  0  0  0  0  0  0  0  0
   10.0596   34.2475   17.3432 N   0  0  0  0  0  0  0  0  0  0  0  0
   14.2355   33.5328   12.6714 S   0  0  0  0  0  0  0  0  0  0  0  0
   12.3163   35.7885   16.1600 C   0  0  0  0  0  0  0  0  0  0  0  0
   12.7454   33.7020   14.9796 N   0  0  0  0  0  0  0  0  0  0  0  0
   13.7399   35.7528   14.2072 C   0  0  0  0  0  0  0  0  0  0  0  0
   13.2789   37.7367   15.2293 O   0  0  0  0  0  0  0  0  0  0  0  0
   12.0881   34.3889   16.0189 C   0  0  0  0  0  0  0  0  0  0  0  0
   11.1534   32.2669   16.9754 C   0  0  0  0  0  0  0  0  0  0  0  0
   13.1171   36.3954   15.2186 C   0  0  0  0  0  0  0  0  0  0  0  0
   11.1619   33.7166   16.9521 C   0  0  0  0  0  0  0  0  0  0  0  0
    9.8823   32.0132   16.5536 N   0  0  0  0  0  0  0  0  0  0  0  0
  1  3  2  0
  1  5  1  0
  1  6  1  0
  2 11  2  0
  4  8  2  0
  4 10  1  0
  5  8  1  0
  6 10  2  0
  7 10  1  0
  8 11  1  0
  9 11  1  0
  9 12  1  0
M  END
$$$$
