
     RDKit          3D

 20 23  0  0  0  0  0  0  0  0999 V2000
   12.7221   35.3828   15.7379 C   0  0  0  0  0  0  0  0  0  0  0  0
   11.9515   34.2227   16.1337 C   0  0  0  0  0  0  0  0  0  0  0  0
    9.7719   33.6714   17.2230 N   0  0  0  0  0  0  0  0  0  0  0  0
   12.1739   32.9161   15.9106 N   0  0  0  0  0  0  0  0  0  0  0  0
   10.7471   36.2002   17.0702 C   0  0  0  0  0  0  0  0  0  0  0  0
   15.9592   33.1320   11.3686 C   0  0  0  0  0  0  0  0  0  0  0  0
   15.4927   34.3408   10.5451 C   0  0  0  0  0  0  0  0  0  0  0  0
   11.2386   32.0083   16.2600 C   0  0  0  0  0  0  0  0  0  0  0  0
   14.5133   35.0403   14.0660 N   0  0  0  0  0  0  0  0  0  0  0  0
   12.5591   38.8842   15.7674 O   0  0  0  0  0  0  0  0  0  0  0  0
   10.7593   34.6278   16.8566 C   0  0  0  0  0  0  0  0  0  0  0  0
   15.2361   35.3500   11.6550 C   0  0  0  0  0  0  0  0  0  0  0  0
   12.8827   37.5708   15.7373 C   0  0  0  0  0  0  0  0  0  0  0  0
   14.7430   34.6318   12.8231 C   0  0  0  0  0  0  0  0  0  0  0  0
   15.3844   33.3824   12.6734 N   0  0  0  0  0  0  0  0  0  0  0  0
   10.1337   32.4110   16.8679 C   0  0  0  0  0  0  0  0  0  0  0  0
   15.1826   32.4665   13.8353 C   0  0  0  0  0  0  0  0  0  0  0  0
   13.8093   35.6845   14.9411 C   0  0  0  0  0  0  0  0  0  0  0  0
   13.9495   37.0887   15.0392 N   0  0  0  0  0  0  0  0  0  0  0  0
   12.1193   36.5917   16.2438 C   0  0  0  0  0  0  0  0  0  0  0  0
  1  2  1  0
  1 18  2  0
  1 20  1  0
  2  4  2  0
  2 11  1  0
  3 11  1  0
  3 16  1  0
  4  8  1  0
  5 11  1  0
  5 20  1  0
  6  7  1  0
  6 15  1  0
  7 12  1  0
  8 16  2  0
  9 14  2  3
  9 18  1  0
 10 13  2  0
 12 14  1  0
 13 19  1  0
 13 20  1  0
 14 15  1  0
 15 17  1  0
 18 19  1  0
M  END
$$$$
