
     RDKit          3D

 19 21  0  0  0  0  0  0  0  0999 V2000
    9.5968   33.7989   17.3984 N   0  0  0  0  0  0  0  0  0  0  0  0
   13.5490   34.1208   14.9054 C   0  0  0  0  0  0  0  0  0  0  0  0
   15.6336   34.8008   13.1636 C   0  0  0  0  0  0  0  0  0  0  0  0
   12.5896   33.1636   15.2904 C   0  0  0  0  0  0  0  0  0  0  0  0
   14.6731   33.8340   13.8907 C   0  0  0  0  0  0  0  0  0  0  0  0
   10.3545   32.8796   16.7012 C   0  0  0  0  0  0  0  0  0  0  0  0
   11.5341   33.5297   16.1481 C   0  0  0  0  0  0  0  0  0  0  0  0
   17.2086   35.9506   11.0781 C   0  0  0  0  0  0  0  0  0  0  0  0
   16.0547   35.1864   10.7724 C   0  0  0  0  0  0  0  0  0  0  0  0
   16.6838   35.6942   13.4220 C   0  0  0  0  0  0  0  0  0  0  0  0
   17.4454   36.3013   12.4267 C   0  0  0  0  0  0  0  0  0  0  0  0
   11.4642   34.8223   16.6127 C   0  0  0  0  0  0  0  0  0  0  0  0
   12.4435   35.7844   16.2779 C   0  0  0  0  0  0  0  0  0  0  0  0
   13.9081   33.4850   12.5637 C   0  0  0  0  0  0  0  0  0  0  0  0
   15.5358   32.8834   14.5232 O   0  0  0  0  0  0  0  0  0  0  0  0
   10.3769   35.0347   17.3288 N   0  0  0  0  0  0  0  0  0  0  0  0
   13.5000   35.4272   15.4274 C   0  0  0  0  0  0  0  0  0  0  0  0
   15.3523   34.6454   11.8473 C   0  0  0  0  0  0  0  0  0  0  0  0
   10.0380   31.7657   16.6978 O   0  0  0  0  0  0  0  0  0  0  0  0
  1  6  1  0
  1 16  1  0
  2  4  2  0
  2  5  1  0
  2 17  1  0
  3  5  1  0
  3 10  1  0
  3 18  2  0
  4  7  1  0
  5 14  1  0
  5 15  1  0
  6  7  1  0
  6 19  2  0
  7 12  2  0
  8  9  2  0
  8 11  1  0
  9 18  1  0
 10 11  2  0
 12 13  1  0
 12 16  1  0
 13 17  2  0
M  END
$$$$
