
     RDKit          3D

 27 30  0  0  0  0  0  0  0  0999 V2000
   14.8317   34.9722   13.0194 C   0  0  0  0  0  0  0  0  0  0  0  0
   12.5261   32.9100   15.9033 C   0  0  0  0  0  0  0  0  0  0  0  0
   10.6102   35.6532   17.2929 N   0  0  0  0  0  0  0  0  0  0  0  0
   13.7985   31.5996   14.0615 C   0  0  0  0  0  0  0  0  0  0  0  0
   14.1802   30.3195   13.7473 C   0  0  0  0  0  0  0  0  0  0  0  0
   17.0508   33.4779   13.3277 C   0  0  0  0  0  0  0  0  0  0  0  0
   13.6174   35.2290   11.9643 C   0  0  0  0  0  0  0  0  0  0  0  0
   17.6217   34.0861   12.2073 C   0  0  0  0  0  0  0  0  0  0  0  0
   16.0264   35.4125   10.3752 N   0  0  0  0  0  0  0  0  0  0  0  0
   16.0545   35.7056   12.8797 N   0  0  0  0  0  0  0  0  0  0  0  0
   12.9022   35.5352   15.7926 C   0  0  0  0  0  0  0  0  0  0  0  0
   15.5036   30.0859   13.2867 C   0  0  0  0  0  0  0  0  0  0  0  0
   12.2446   34.2900   16.1307 C   0  0  0  0  0  0  0  0  0  0  0  0
   11.3771   32.2155   16.2885 C   0  0  0  0  0  0  0  0  0  0  0  0
   13.9330   35.2347   14.9125 N   0  0  0  0  0  0  0  0  0  0  0  0
   14.6788   32.7285   14.0136 C   0  0  0  0  0  0  0  0  0  0  0  0
   11.0406   34.4912   16.7827 C   0  0  0  0  0  0  0  0  0  0  0  0
   12.4968   36.7624   16.3279 C   0  0  0  0  0  0  0  0  0  0  0  0
    9.7009   33.1242   17.6550 O   0  0  0  0  0  0  0  0  0  0  0  0
   17.8412   36.3969   11.3878 O   0  0  0  0  0  0  0  0  0  0  0  0
   11.3681   36.8339   17.1266 C   0  0  0  0  0  0  0  0  0  0  0  0
   17.9555   33.8216   14.0801 O   0  0  0  0  0  0  0  0  0  0  0  0
   10.4233   33.1945   16.9199 C   0  0  0  0  0  0  0  0  0  0  0  0
   14.3792   34.2042   14.1764 C   0  0  0  0  0  0  0  0  0  0  0  0
   16.9237   35.5080   11.6589 C   0  0  0  0  0  0  0  0  0  0  0  0
   16.3813   31.1592   13.2553 C   0  0  0  0  0  0  0  0  0  0  0  0
   16.0030   32.4532   13.5534 C   0  0  0  0  0  0  0  0  0  0  0  0
  1  7  1  0
  1 10  1  0
  1 24  1  0
  2 13  1  0
  2 14  1  0
  3 17  2  0
  3 21  1  0
  4  5  2  0
  4 16  1  0
  5 12  1  0
  6  8  1  0
  6 22  2  0
  6 27  1  0
  8 25  1  0
  9 25  1  0
 10 25  1  0
 11 13  2  0
 11 15  1  0
 11 18  1  0
 12 26  1  0
 13 17  1  0
 14 23  1  0
 15 24  1  0
 16 24  1  0
 16 27  1  0
 17 23  1  0
 18 21  2  0
 19 23  2  0
 20 25  1  0
 26 27  2  0
M  END
$$$$
