
     RDKit          3D

 10 10  0  0  0  0  0  0  0  0999 V2000
   14.6954   36.1171   14.1618 N   0  0  0  0  0  0  0  0  0  0  0  0
   12.9096   35.2098   16.1466 N   0  0  0  0  0  0  0  0  0  0  0  0
   13.8356   34.7335   12.5949 N   0  0  0  0  0  0  0  0  0  0  0  0
    9.8808   32.8602   17.4155 O   0  0  0  0  0  0  0  0  0  0  0  0
   12.6281   33.3035   15.0841 C   0  0  0  0  0  0  0  0  0  0  0  0
   10.8206   32.3394   16.5435 C   0  0  0  0  0  0  0  0  0  0  0  0
   11.8829   33.3146   16.1815 C   0  0  0  0  0  0  0  0  0  0  0  0
   11.9953   34.4702   16.7981 N   0  0  0  0  0  0  0  0  0  0  0  0
   13.2452   34.5286   15.0478 C   0  0  0  0  0  0  0  0  0  0  0  0
   13.9547   35.1417   13.9193 C   0  0  0  0  0  0  0  0  0  0  0  0
  1 10  2  0
  2  8  1  0
  2  9  1  0
  3 10  1  0
  4  6  1  0
  5  7  1  0
  5  9  1  0
  6  7  1  0
  7  8  1  0
  9 10  1  0
M  END
$$$$
