
     RDKit          3D

 14 14  0  0  0  0  0  0  0  0999 V2000
   -8.4056    1.4297  -32.3632 O   0  0  0  0  0  0  0  0  0  0  0  0
   -7.4635    3.5588  -33.4281 O   0  0  0  0  0  0  0  0  0  0  0  0
  -10.9559    2.7782  -30.8383 N   0  0  0  0  0  0  0  0  0  0  0  0
   -7.8678    6.2420  -30.6977 O   0  0  0  0  0  0  0  0  0  0  0  0
   -6.0540    2.1529  -31.9036 O   0  0  0  0  0  0  0  0  0  0  0  0
   -8.2188    3.5953  -31.0350 O   0  0  0  0  0  0  0  0  0  0  0  0
   -9.4144    4.5981  -30.9081 C   0  0  0  0  0  0  0  0  0  0  0  0
  -10.3723    3.7779  -29.9225 C   0  0  0  0  0  0  0  0  0  0  0  0
   -7.5035    2.6386  -32.2013 P   0  0  0  0  0  0  0  0  0  0  0  0
   -7.4241    3.8157  -29.8275 C   0  0  0  0  0  0  0  0  0  0  0  0
   -8.8848    5.6703  -29.7947 C   0  0  0  0  0  0  0  0  0  0  0  0
  -10.3644    4.2646  -27.2980 S   0  0  0  0  0  0  0  0  0  0  0  0
   -9.5018    3.6167  -28.6469 C   0  0  0  0  0  0  0  0  0  0  0  0
   -8.2680    4.5916  -28.8157 C   0  0  0  0  0  0  0  0  0  0  0  0
  1  9  1  0
  2  9  1  0
  3  8  1  0
  4 11  1  0
  5  9  1  0
  6  9  1  0
  6 10  1  0
  7  8  1  0
  7 11  1  0
  8 13  1  0
 10 14  1  0
 11 14  1  0
 12 13  1  0
 13 14  1  0
M  END
$$$$
