
     RDKit          3D

 13 12  0  0  0  0  0  0  0  0999 V2000
   -8.8775    3.5497  -30.2141 C   0  0  0  0  0  0  0  0  0  0  0  0
   -9.8126    3.9127  -31.2651 C   0  0  0  0  0  0  0  0  0  0  0  0
   -8.2280    5.5017  -28.9126 C   0  0  0  0  0  0  0  0  0  0  0  0
   -7.4403    3.4945  -33.1837 O   0  0  0  0  0  0  0  0  0  0  0  0
   -5.8290    1.8710  -32.1313 O   0  0  0  0  0  0  0  0  0  0  0  0
   -7.5172    3.0881  -30.4570 C   0  0  0  0  0  0  0  0  0  0  0  0
   -8.1900    6.2534  -27.8129 O   0  0  0  0  0  0  0  0  0  0  0  0
  -10.4964    4.5205  -27.0518 O   0  0  0  0  0  0  0  0  0  0  0  0
   -7.2713    2.4073  -32.0686 P   0  0  0  0  0  0  0  0  0  0  0  0
   -8.3200    1.2981  -32.2598 O   0  0  0  0  0  0  0  0  0  0  0  0
   -9.0577    4.3139  -28.9846 C   0  0  0  0  0  0  0  0  0  0  0  0
   -7.6539    5.8760  -29.9927 O   0  0  0  0  0  0  0  0  0  0  0  0
  -10.0693    3.7333  -28.0910 C   0  0  0  0  0  0  0  0  0  0  0  0
  1  2  1  0
  1  6  1  0
  1 11  1  0
  3  7  2  0
  3 11  1  0
  3 12  1  0
  4  9  1  0
  5  9  1  0
  6  9  1  0
  8 13  1  0
  9 10  1  0
 11 13  2  3
M  END
$$$$
