
     RDKit          3D

 11 10  0  0  0  0  0  0  0  0999 V2000
   -7.2711    3.5431  -30.9425 O   0  0  0  0  0  0  0  0  0  0  0  0
   -7.7286    6.0067  -30.1794 O   0  0  0  0  0  0  0  0  0  0  0  0
   -8.0662    5.0804  -29.3643 N   0  0  0  0  0  0  0  0  0  0  0  0
  -10.5725    4.0210  -29.6906 N   0  0  0  0  0  0  0  0  0  0  0  0
   -7.8026    3.7229  -29.7511 C   0  0  0  0  0  0  0  0  0  0  0  0
   -5.9881    1.7661  -32.0668 O   0  0  0  0  0  0  0  0  0  0  0  0
   -7.3353    2.5252  -32.1363 P   0  0  0  0  0  0  0  0  0  0  0  0
   -8.8887    5.3620  -28.1781 C   0  0  0  0  0  0  0  0  0  0  0  0
   -8.5066    1.5457  -32.1006 O   0  0  0  0  0  0  0  0  0  0  0  0
  -10.0580    4.3616  -28.1152 C   0  0  0  0  0  0  0  0  0  0  0  0
   -7.3720    3.3976  -33.4257 O   0  0  0  0  0  0  0  0  0  0  0  0
  1  5  1  0
  1  7  1  0
  2  3  1  0
  3  5  1  0
  3  8  1  0
  4 10  1  0
  6  7  1  0
  7  9  1  0
  7 11  1  0
  8 10  1  0
M  END
$$$$
