
     RDKit          3D

 31 32  0  0  0  0  0  0  0  0999 V2000
    2.5988    0.3318    0.5609 C   0  0  0  0  0  0  0  0  0  0  0  0
    5.0870    4.4258    3.8050 O   0  0  0  0  0  0  0  0  0  0  0  0
    9.1924   -1.5507    0.7130 C   0  0  0  0  0  0  0  0  0  0  0  0
    4.1475   -1.7129    1.8523 C   0  0  0  0  0  0  0  0  0  0  0  0
    7.5131   -0.9792    1.4271 C   0  0  0  0  0  0  0  0  0  0  0  0
    4.7271    4.4835    1.6015 O   0  0  0  0  0  0  0  0  0  0  0  0
    6.1486   -1.5587    3.6320 C   0  0  0  0  0  0  0  0  0  0  0  0
    3.7551    0.8708    1.1573 C   0  0  0  0  0  0  0  0  0  0  0  0
   10.0394   -2.3930    1.1518 O   0  0  0  0  0  0  0  0  0  0  0  0
    0.2640    0.6322   -0.5893 O   0  0  0  0  0  0  0  0  0  0  0  0
    4.5528   -0.1575    1.9917 N   0  0  0  0  0  0  0  0  0  0  0  0
    4.7840   -2.3351    3.1360 C   0  0  0  0  0  0  0  0  0  0  0  0
    2.5202   -2.1891    1.4544 C   0  0  0  0  0  0  0  0  0  0  0  0
    6.9582    3.4850    2.8151 O   0  0  0  0  0  0  0  0  0  0  0  0
    1.5475    1.2355    0.1216 C   0  0  0  0  0  0  0  0  0  0  0  0
    7.8959    0.0968    2.5823 C   0  0  0  0  0  0  0  0  0  0  0  0
    2.0589   -1.1334    0.7021 O   0  0  0  0  0  0  0  0  0  0  0  0
    5.6709   -0.1360    3.3149 C   0  0  0  0  0  0  0  0  0  0  0  0
    4.5889    0.2339    3.9898 O   0  0  0  0  0  0  0  0  0  0  0  0
    3.9306    1.9064    0.7705 C   0  0  0  0  0  0  0  0  0  0  0  0
    0.7742    3.4023   -0.5252 N   0  0  0  0  0  0  0  0  0  0  0  0
    2.8393    3.0325    0.4419 N   0  0  0  0  0  0  0  0  0  0  0  0
    7.7964   -2.1337    5.0030 O   0  0  0  0  0  0  0  0  0  0  0  0
    5.5966    3.5751    2.5736 C   0  0  0  0  0  0  0  0  0  0  0  0
    3.9874   -2.3811    3.8291 O   0  0  0  0  0  0  0  0  0  0  0  0
    9.2769   -1.2735   -0.7525 C   0  0  0  0  0  0  0  0  0  0  0  0
    5.7856    2.1950    2.4825 C   0  0  0  0  0  0  0  0  0  0  0  0
    8.4314   -0.7375    3.7361 C   0  0  0  0  0  0  0  0  0  0  0  0
    1.8366    2.6317    0.0975 C   0  0  0  0  0  0  0  0  0  0  0  0
    1.6551   -3.0586    2.2917 C   0  0  0  0  0  0  0  0  0  0  0  0
    6.7614    0.9229    2.8573 C   0  0  0  0  0  0  0  0  0  0  0  0
  1  8  1  0
  1 15  1  0
  1 17  1  0
  2 24  1  0
  3  5  1  0
  3  9  2  0
  3 26  1  0
  4 11  1  0
  4 12  1  0
  4 13  1  0
  5 16  1  0
  6 24  1  0
  7 12  1  0
  7 18  1  0
  8 11  1  0
  8 20  1  0
 10 15  1  0
 11 18  1  0
 12 25  1  0
 13 17  1  0
 13 30  1  0
 14 24  1  0
 15 29  1  0
 16 28  1  0
 16 31  1  0
 18 19  1  0
 18 31  1  0
 20 22  1  0
 21 29  2  0
 22 29  1  0
 24 27  1  0
 27 31  1  0
M  END
$$$$
