
     RDKit          3D

 28 29  0  0  0  0  0  0  0  0999 V2000
    5.9242   -0.9808    2.6237 C   0  0  0  0  0  0  0  0  0  0  0  0
    6.9985    1.8814    3.3002 C   0  0  0  0  0  0  0  0  0  0  0  0
    8.3608    2.6075    3.2447 C   0  0  0  0  0  0  0  0  0  0  0  0
    8.6411   -0.8328    1.5777 O   0  0  0  0  0  0  0  0  0  0  0  0
    8.6530    1.9986    1.0495 O   0  0  0  0  0  0  0  0  0  0  0  0
    5.5794   -2.2405    3.0048 C   0  0  0  0  0  0  0  0  0  0  0  0
    3.3150   -3.7880    3.1455 Cl  0  0  0  0  0  0  0  0  0  0  0  0
    4.7597   -0.3519    1.8420 C   0  0  0  0  0  0  0  0  0  0  0  0
    3.4484    0.9956    0.6267 C   0  0  0  0  0  0  0  0  0  0  0  0
    1.1068    1.2815   -0.4909 C   0  0  0  0  0  0  0  0  0  0  0  0
    8.8571   -0.8734    2.9314 C   0  0  0  0  0  0  0  0  0  0  0  0
    9.3685    0.5283    3.4294 C   0  0  0  0  0  0  0  0  0  0  0  0
   -0.0534    0.9257   -0.3611 O   0  0  0  0  0  0  0  0  0  0  0  0
    8.8909    3.1022    4.2962 O   0  0  0  0  0  0  0  0  0  0  0  0
    1.9529   -0.7160    0.4741 C   0  0  0  0  0  0  0  0  0  0  0  0
    2.4727    3.5750   -0.3548 N   0  0  0  0  0  0  0  0  0  0  0  0
    4.2859   -2.5995    2.6476 N   0  0  0  0  0  0  0  0  0  0  0  0
    2.3291   -1.6383    1.3269 C   0  0  0  0  0  0  0  0  0  0  0  0
    7.7000   -1.7230    4.4341 C   0  0  0  0  0  0  0  0  0  0  0  0
    3.7259   -1.3588    1.8010 C   0  0  0  0  0  0  0  0  0  0  0  0
    1.4214    2.8117   -0.5682 C   0  0  0  0  0  0  0  0  0  0  0  0
    6.8599    0.6833    3.9605 C   0  0  0  0  0  0  0  0  0  0  0  0
    0.3715    3.5626   -0.3644 N   0  0  0  0  0  0  0  0  0  0  0  0
    6.3113    3.0932    3.8434 O   0  0  0  0  0  0  0  0  0  0  0  0
    7.1538   -0.6166    3.4619 N   0  0  0  0  0  0  0  0  0  0  0  0
    9.1822    1.6473    2.4033 C   0  0  0  0  0  0  0  0  0  0  0  0
    2.2479    0.4138    0.2776 C   0  0  0  0  0  0  0  0  0  0  0  0
    4.3685    0.7874    1.2016 N   0  0  0  0  0  0  0  0  0  0  0  0
  1  6  1  0
  1  8  1  0
  1 25  1  0
  2  3  1  0
  2 22  1  0
  2 24  1  0
  3 14  1  0
  3 26  1  0
  4 11  1  0
  5 26  1  0
  6 17  1  0
  7 17  1  0
  8 20  2  0
  8 28  1  0
  9 27  1  0
  9 28  2  0
 10 13  2  0
 10 21  1  0
 10 27  1  0
 11 12  1  0
 12 26  1  0
 15 18  1  0
 15 27  1  0
 16 21  2  0
 17 20  1  0
 18 20  1  0
 19 25  1  0
 21 23  1  0
 22 25  1  0
M  END
$$$$
