
     RDKit          3D

 23 24  0  0  0  0  0  0  0  0999 V2000
    1.7979    2.5946    0.1055 C   0  0  0  0  0  0  0  0  0  0  0  0
    3.0591    2.8434    0.5743 C   0  0  0  0  0  0  0  0  0  0  0  0
    6.7708    2.7230    2.7115 O   0  0  0  0  0  0  0  0  0  0  0  0
    4.4074    3.3967    4.0507 O   0  0  0  0  0  0  0  0  0  0  0  0
    4.6898    4.2519    1.5490 O   0  0  0  0  0  0  0  0  0  0  0  0
   -0.1566    0.7481   -0.4320 O   0  0  0  0  0  0  0  0  0  0  0  0
    7.3200   -2.5973    3.0955 C   0  0  0  0  0  0  0  0  0  0  0  0
    5.9589   -2.9388    2.4527 C   0  0  0  0  0  0  0  0  0  0  0  0
    0.7885    3.3692   -0.6915 N   0  0  0  0  0  0  0  0  0  0  0  0
    5.2939    4.2241    3.1524 P   0  0  0  0  0  0  0  0  0  0  0  0
    5.6369    5.3702    3.6025 O   0  0  0  0  0  0  0  0  0  0  0  0
    1.2527    1.0659    0.1376 C   0  0  0  0  0  0  0  0  0  0  0  0
    4.9815    1.7266    1.6120 N   0  0  0  0  0  0  0  0  0  0  0  0
    2.3373   -0.0256    0.4865 C   0  0  0  0  0  0  0  0  0  0  0  0
    7.6101   -1.2969    2.8560 C   0  0  0  0  0  0  0  0  0  0  0  0
    4.3566   -0.3684    1.3001 C   0  0  0  0  0  0  0  0  0  0  0  0
    3.5205    0.3563    0.9620 C   0  0  0  0  0  0  0  0  0  0  0  0
    5.7758    1.6368    2.1513 C   0  0  0  0  0  0  0  0  0  0  0  0
    5.2081   -2.2930    1.8576 C   0  0  0  0  0  0  0  0  0  0  0  0
    6.6605   -0.2160    2.3390 C   0  0  0  0  0  0  0  0  0  0  0  0
    3.7495    1.7136    1.0528 C   0  0  0  0  0  0  0  0  0  0  0  0
    5.3853   -0.6343    1.8344 C   0  0  0  0  0  0  0  0  0  0  0  0
    8.0634   -3.5906    4.3419 Cl  0  0  0  0  0  0  0  0  0  0  0  0
  1  2  1  0
  1  9  1  0
  1 12  1  0
  2 21  1  0
  3 10  1  0
  3 18  1  0
  4 10  1  0
  5 10  1  0
  6 12  1  0
  7  8  1  0
  7 15  1  0
  7 23  1  0
  8 19  2  0
 10 11  1  0
 12 14  2  0
 13 18  1  0
 13 21  1  0
 14 17  1  0
 15 20  1  0
 16 17  2  3
 16 22  1  0
 17 21  1  0
 19 22  1  0
 20 22  2  0
M  END
$$$$
