
     RDKit          3D

 65 64  0  0  0  0  0  0  0  0999 V2000
    4.1844   -1.4934    4.8169 C   0  0  0  0  0  0  0  0  0  0  0  0
    2.0188    0.9881   -0.4836 C   0  0  0  0  0  0  0  0  0  0  0  0
    7.4377    1.6205    5.0056 C   0  0  0  0  0  0  0  0  0  0  0  0
    4.9797    3.9302    2.0146 O   0  0  0  0  0  0  0  0  0  0  0  0
    0.7729    1.4711   -0.9786 C   0  0  0  0  0  0  0  0  0  0  0  0
    4.2424   -2.6245    5.5063 C   0  0  0  0  0  0  0  0  0  0  0  0
    3.9360   -4.6725    6.6830 O   0  0  0  0  0  0  0  0  0  0  0  0
    5.8125   -2.6207    7.3888 C   0  0  0  0  0  0  0  0  0  0  0  0
    8.6532   -1.9026    2.4910 N   0  0  0  0  0  0  0  0  0  0  0  0
    3.1216   -0.0562   -0.2290 C   0  0  0  0  0  0  0  0  0  0  0  0
    8.1236   -1.9133    6.2281 O   0  0  0  0  0  0  0  0  0  0  0  0
    4.1597   -3.9422    5.1080 C   0  0  0  0  0  0  0  0  0  0  0  0
    5.7820    3.0458    4.0480 O   0  0  0  0  0  0  0  0  0  0  0  0
    9.0258    0.6000    2.8468 C   0  0  0  0  0  0  0  0  0  0  0  0
    7.1144   -0.1059    7.4864 C   0  0  0  0  0  0  0  0  0  0  0  0
    3.2907    2.0290    1.2500 C   0  0  0  0  0  0  0  0  0  0  0  0
   -0.7421    1.3250   -0.6093 O   0  0  0  0  0  0  0  0  0  0  0  0
    0.8905   -0.7686    1.3920 O   0  0  0  0  0  0  0  0  0  0  0  0
    9.4508   -2.5466    0.1009 C   0  0  0  0  0  0  0  0  0  0  0  0
    8.9533   -0.7264    3.7320 C   0  0  0  0  0  0  0  0  0  0  0  0
    3.1392   -0.3627    1.4009 C   0  0  0  0  0  0  0  0  0  0  0  0
    3.2797    3.6114    0.0782 O   0  0  0  0  0  0  0  0  0  0  0  0
    0.8802   -2.7863    2.9622 O   0  0  0  0  0  0  0  0  0  0  0  0
    3.4618   -1.7743    2.1320 C   0  0  0  0  0  0  0  0  0  0  0  0
    3.4018    0.7240    1.8593 C   0  0  0  0  0  0  0  0  0  0  0  0
    7.8825   -2.9055    4.6147 N   0  0  0  0  0  0  0  0  0  0  0  0
    6.4937    1.0762    5.8801 O   0  0  0  0  0  0  0  0  0  0  0  0
    7.6367   -5.0769    5.4197 C   0  0  0  0  0  0  0  0  0  0  0  0
    6.2549    1.3141    8.3875 C   0  0  0  0  0  0  0  0  0  0  0  0
    9.7997    1.3757    3.5652 C   0  0  0  0  0  0  0  0  0  0  0  0
    5.3668    4.1343    2.9221 C   0  0  0  0  0  0  0  0  0  0  0  0
    6.6078   -3.2472    6.4610 C   0  0  0  0  0  0  0  0  0  0  0  0
    8.0057   -4.0090    4.2907 C   0  0  0  0  0  0  0  0  0  0  0  0
    0.9899    2.9994   -0.3868 C   0  0  0  0  0  0  0  0  0  0  0  0
    3.3530   -3.2174    2.7153 C   0  0  0  0  0  0  0  0  0  0  0  0
    7.9494   -4.6803    6.2918 O   0  0  0  0  0  0  0  0  0  0  0  0
    9.1694   -2.6922    2.1429 C   0  0  0  0  0  0  0  0  0  0  0  0
    7.3635   -2.4012    5.5284 C   0  0  0  0  0  0  0  0  0  0  0  0
    1.6129   -3.0181    2.0746 C   0  0  0  0  0  0  0  0  0  0  0  0
    9.6106    3.2253    2.9676 O   0  0  0  0  0  0  0  0  0  0  0  0
    4.5551   -3.0264    8.7671 C   0  0  0  0  0  0  0  0  0  0  0  0
    0.2674    3.8248    0.0837 O   0  0  0  0  0  0  0  0  0  0  0  0
   10.0253   -4.1700    2.2420 C   0  0  0  0  0  0  0  0  0  0  0  0
    7.8742   -0.5490    6.9838 O   0  0  0  0  0  0  0  0  0  0  0  0
    8.9736    0.7183    7.2237 C   0  0  0  0  0  0  0  0  0  0  0  0
    2.0678   -1.4688    1.4068 C   0  0  0  0  0  0  0  0  0  0  0  0
    5.2471   -2.4207    9.8345 C   0  0  0  0  0  0  0  0  0  0  0  0
    5.6969   -1.0784    7.2276 C   0  0  0  0  0  0  0  0  0  0  0  0
   -1.5801    2.3379   -1.3874 O   0  0  0  0  0  0  0  0  0  0  0  0
    9.5049   -0.6527   -1.7968 C   0  0  0  0  0  0  0  0  0  0  0  0
    9.4705   -1.0939   -0.2920 C   0  0  0  0  0  0  0  0  0  0  0  0
    5.9090   -3.6686    7.6171 O   0  0  0  0  0  0  0  0  0  0  0  0
    2.5609    2.4828    0.0792 C   0  0  0  0  0  0  0  0  0  0  0  0
    5.6319    5.1218    3.4009 O   0  0  0  0  0  0  0  0  0  0  0  0
    4.9977    1.4003    8.2893 C   0  0  0  0  0  0  0  0  0  0  0  0
    7.7199    1.1757    2.3162 O   0  0  0  0  0  0  0  0  0  0  0  0
    3.7512    3.1901    2.3002 C   0  0  0  0  0  0  0  0  0  0  0  0
    4.1385   -0.4319   -0.2377 C   0  0  0  0  0  0  0  0  0  0  0  0
    5.3162   -0.6270    0.1621 O   0  0  0  0  0  0  0  0  0  0  0  0
    3.5323   -3.7695    3.7185 C   0  0  0  0  0  0  0  0  0  0  0  0
    7.3331   -4.2924    2.6646 O   0  0  0  0  0  0  0  0  0  0  0  0
    9.4314    0.9709    5.9856 C   0  0  0  0  0  0  0  0  0  0  0  0
    8.9413    1.8255    5.0041 C   0  0  0  0  0  0  0  0  0  0  0  0
    6.9782    2.4303    3.7755 C   0  0  0  0  0  0  0  0  0  0  0  0
    8.7781    2.1610    7.6231 O   0  0  0  0  0  0  0  0  0  0  0  0
  1  6  2  0
  2  5  1  0
  2 10  1  0
  2 53  1  0
  3 27  1  0
  3 63  1  0
  3 64  1  0
  4 31  1  0
  4 57  1  0
  5 17  1  0
  5 34  1  0
  6 12  1  0
  7 12  1  0
  8 32  1  0
  8 41  1  0
  8 48  1  0
  8 52  1  0
  9 20  1  0
  9 37  1  0
 10 21  1  0
 10 58  2  0
 11 38  1  0
 12 60  1  0
 13 31  1  0
 13 64  1  0
 14 20  1  0
 14 30  1  0
 14 56  1  0
 15 29  1  0
 15 44  1  0
 15 48  1  0
 16 25  1  0
 16 53  1  0
 16 57  1  0
 17 49  1  0
 18 46  1  0
 19 51  1  0
 21 25  1  0
 21 46  1  0
 22 53  1  0
 23 39  1  0
 24 35  1  0
 24 46  1  0
 26 33  1  0
 26 38  1  0
 28 33  1  0
 28 36  1  0
 29 55  2  0
 30 63  1  0
 31 54  2  0
 32 38  1  0
 33 61  1  0
 34 42  2  0
 34 53  1  0
 35 60  1  0
 37 43  1  0
 39 46  1  0
 41 47  1  0
 44 45  1  0
 45 62  1  0
 45 65  1  0
 50 51  1  0
 58 59  2  0
 62 63  1  0
M  END
$$$$
