
     RDKit          3D

 28 27  0  0  0  0  0  0  0  0999 V2000
    9.4181   -0.4687   -0.1892 C   0  0  0  0  0  0  0  0  0  0  0  0
    5.1291    3.0065    2.7255 P   0  0  0  0  0  0  0  0  0  0  0  0
    2.1619   -0.8368    1.5919 N   0  0  0  0  0  0  0  0  0  0  0  0
    5.8428   -1.3187    1.6439 C   0  0  0  0  0  0  0  0  0  0  0  0
    5.0426   -1.7096    3.6518 O   0  0  0  0  0  0  0  0  0  0  0  0
    4.5084    3.9039    1.8251 O   0  0  0  0  0  0  0  0  0  0  0  0
    5.1740    1.8600    1.7414 O   0  0  0  0  0  0  0  0  0  0  0  0
    8.2998   -0.5393    1.9175 C   0  0  0  0  0  0  0  0  0  0  0  0
    3.4448   -1.1307    1.9830 C   0  0  0  0  0  0  0  0  0  0  0  0
    6.1026   -0.6458    2.9981 C   0  0  0  0  0  0  0  0  0  0  0  0
    2.4799    2.2138   -0.5239 N   0  0  0  0  0  0  0  0  0  0  0  0
    5.3444   -2.4878    2.8550 C   0  0  0  0  0  0  0  0  0  0  0  0
    7.6377    1.7893    3.1481 O   0  0  0  0  0  0  0  0  0  0  0  0
    8.8088    0.3573    1.1201 C   0  0  0  0  0  0  0  0  0  0  0  0
    0.7560    1.0854    0.1219 N   0  0  0  0  0  0  0  0  0  0  0  0
    4.3842    0.2440   -0.0793 C   0  0  0  0  0  0  0  0  0  0  0  0
    8.0184    2.8852    3.2078 P   0  0  0  0  0  0  0  0  0  0  0  0
    4.4738   -0.7502    1.1592 N   0  0  0  0  0  0  0  0  0  0  0  0
    7.8814   -0.9863    3.1926 C   0  0  0  0  0  0  0  0  0  0  0  0
    0.3701    3.0430   -0.7995 N   0  0  0  0  0  0  0  0  0  0  0  0
    2.0270    0.3307    0.7697 C   0  0  0  0  0  0  0  0  0  0  0  0
    9.1839    1.8824    0.1248 O   0  0  0  0  0  0  0  0  0  0  0  0
    8.6139   -0.7561   -0.9338 O   0  0  0  0  0  0  0  0  0  0  0  0
    7.7109    3.7953    4.4250 O   0  0  0  0  0  0  0  0  0  0  0  0
    9.0867    3.3401    2.4138 O   0  0  0  0  0  0  0  0  0  0  0  0
    1.1788    2.1457   -0.4198 C   0  0  0  0  0  0  0  0  0  0  0  0
    5.0874    2.3092    3.6447 O   0  0  0  0  0  0  0  0  0  0  0  0
    3.1396    0.9950    0.0766 C   0  0  0  0  0  0  0  0  0  0  0  0
  1 14  1  0
  1 23  1  0
  2  6  1  0
  2  7  1  0
  2 27  1  0
  3  9  1  0
  3 21  2  0
  4 10  1  0
  4 12  1  0
  4 18  1  0
  5 10  1  0
  5 12  1  0
  8 14  1  0
  8 19  1  0
  9 18  1  0
 10 19  1  0
 11 26  1  0
 11 28  1  0
 13 17  1  0
 15 21  1  0
 15 26  1  0
 16 18  1  0
 16 28  1  0
 17 24  1  0
 17 25  1  0
 20 26  2  0
 21 28  1  0
M  END
$$$$
