
     RDKit          3D

 31 31  0  0  0  0  0  0  0  0999 V2000
    9.8736   -1.6871    0.2834 C   0  0  0  0  0  0  0  0  0  0  0  0
    3.0847   -1.9843    2.5681 N   0  0  0  0  0  0  0  0  0  0  0  0
    2.8123   -4.1950    3.4407 C   0  0  0  0  0  0  0  0  0  0  0  0
    0.2600    2.1292   -0.7831 C   0  0  0  0  0  0  0  0  0  0  0  0
    3.5067    3.3931    1.2218 S   0  0  0  0  0  0  0  0  0  0  0  0
    2.9638   -1.6756    1.2076 C   0  0  0  0  0  0  0  0  0  0  0  0
    4.9589    2.0650    3.1992 C   0  0  0  0  0  0  0  0  0  0  0  0
    7.8492    0.2968    1.6951 N   0  0  0  0  0  0  0  0  0  0  0  0
    5.0940    4.3928    2.9075 O   0  0  0  0  0  0  0  0  0  0  0  0
    4.9960    3.4443    3.6337 C   0  0  0  0  0  0  0  0  0  0  0  0
    2.6031    1.0280    0.6326 C   0  0  0  0  0  0  0  0  0  0  0  0
   10.0033    1.7903    1.2034 O   0  0  0  0  0  0  0  0  0  0  0  0
    2.4264    2.3603    0.2294 C   0  0  0  0  0  0  0  0  0  0  0  0
    8.3913   -2.4699    1.9465 C   0  0  0  0  0  0  0  0  0  0  0  0
    0.9237   -2.7103    2.8968 O   0  0  0  0  0  0  0  0  0  0  0  0
    7.4040    2.8718    2.2280 O   0  0  0  0  0  0  0  0  0  0  0  0
   10.2975   -0.4207    2.4095 C   0  0  0  0  0  0  0  0  0  0  0  0
    3.6458    0.8774    1.3798 C   0  0  0  0  0  0  0  0  0  0  0  0
    4.1814    1.9424    1.8072 C   0  0  0  0  0  0  0  0  0  0  0  0
    6.1978    0.7770    2.9410 C   0  0  0  0  0  0  0  0  0  0  0  0
    5.6208   -0.6339    2.9005 C   0  0  0  0  0  0  0  0  0  0  0  0
    9.1650    0.6135    1.8387 C   0  0  0  0  0  0  0  0  0  0  0  0
    4.7691   -2.1922    3.0580 C   0  0  0  0  0  0  0  0  0  0  0  0
    9.7589   -1.9138    1.8025 C   0  0  0  0  0  0  0  0  0  0  0  0
   10.5342   -2.9404    2.8701 C   0  0  0  0  0  0  0  0  0  0  0  0
    4.6466    3.6147    5.0021 O   0  0  0  0  0  0  0  0  0  0  0  0
    2.2610   -2.8830    3.1768 C   0  0  0  0  0  0  0  0  0  0  0  0
    2.0627   -0.6046    0.3569 C   0  0  0  0  0  0  0  0  0  0  0  0
    1.3817    2.9281   -0.7605 N   0  0  0  0  0  0  0  0  0  0  0  0
    7.2528    1.4052    2.2218 C   0  0  0  0  0  0  0  0  0  0  0  0
    0.0374    0.8995   -0.2330 O   0  0  0  0  0  0  0  0  0  0  0  0
  1 24  1  0
  2  6  1  0
  2 27  1  0
  3 27  1  0
  4 29  1  0
  4 31  1  0
  5 13  1  0
  5 19  1  0
  6 28  1  0
  7 10  1  0
  7 19  1  0
  7 20  1  0
  8 22  1  0
  8 30  1  0
  9 10  2  0
 10 26  1  0
 11 13  1  0
 11 18  2  0
 11 28  1  0
 12 22  2  0
 13 29  1  0
 14 24  1  0
 15 27  2  0
 16 30  2  0
 17 22  1  0
 17 24  1  0
 18 19  1  0
 20 21  1  0
 20 30  1  0
 21 23  1  0
 24 25  1  0
M  END
$$$$
