
     RDKit          3D

 27 27  0  0  0  0  0  0  0  0999 V2000
    3.7701    3.4110    2.0578 O   0  0  0  0  0  0  0  0  0  0  0  0
    8.6283   -1.0142    2.3068 C   0  0  0  0  0  0  0  0  0  0  0  0
    6.9552    1.1228    3.4817 C   0  0  0  0  0  0  0  0  0  0  0  0
    8.9551   -0.0404    1.0928 C   0  0  0  0  0  0  0  0  0  0  0  0
   -0.1564    2.3628   -0.9224 O   0  0  0  0  0  0  0  0  0  0  0  0
    6.9829   -0.8089    2.5320 C   0  0  0  0  0  0  0  0  0  0  0  0
    5.0129    3.1044    4.3151 C   0  0  0  0  0  0  0  0  0  0  0  0
    8.9570   -1.9730   -0.1517 C   0  0  0  0  0  0  0  0  0  0  0  0
    3.1374    2.6517    1.0441 C   0  0  0  0  0  0  0  0  0  0  0  0
    1.7316    3.1686    0.2487 C   0  0  0  0  0  0  0  0  0  0  0  0
    3.3572    1.0513    0.3597 C   0  0  0  0  0  0  0  0  0  0  0  0
   10.9335   -0.6783    0.1735 C   0  0  0  0  0  0  0  0  0  0  0  0
    5.7607   -2.6276    3.4825 C   0  0  0  0  0  0  0  0  0  0  0  0
    1.7540    0.8061   -0.1202 N   0  0  0  0  0  0  0  0  0  0  0  0
    8.6457   -2.5652    1.2859 C   0  0  0  0  0  0  0  0  0  0  0  0
    4.6741   -0.8428    0.9217 C   0  0  0  0  0  0  0  0  0  0  0  0
    3.1143   -1.4463    2.6579 O   0  0  0  0  0  0  0  0  0  0  0  0
    6.7107    0.4800    2.0725 C   0  0  0  0  0  0  0  0  0  0  0  0
    4.3253   -0.9319    2.4659 C   0  0  0  0  0  0  0  0  0  0  0  0
    5.6215   -1.3415    3.2717 C   0  0  0  0  0  0  0  0  0  0  0  0
    1.4723   -0.4407   -0.4691 O   0  0  0  0  0  0  0  0  0  0  0  0
    7.3321    2.8852    3.0329 C   0  0  0  0  0  0  0  0  0  0  0  0
    9.6839   -0.5593    0.1408 C   0  0  0  0  0  0  0  0  0  0  0  0
    0.9088    2.0726   -0.3483 C   0  0  0  0  0  0  0  0  0  0  0  0
    6.0607    3.6578    3.1332 C   0  0  0  0  0  0  0  0  0  0  0  0
    4.3465    0.1696    0.2369 C   0  0  0  0  0  0  0  0  0  0  0  0
    5.6565    1.5745    4.4535 C   0  0  0  0  0  0  0  0  0  0  0  0
  1  9  1  0
  2  4  1  0
  2  6  1  0
  3 18  1  0
  3 27  1  0
  4 23  1  0
  5 24  2  0
  6 18  1  0
  6 20  1  0
  7 25  1  0
  7 27  1  0
  8 15  1  0
  8 23  1  0
  9 10  1  0
  9 11  1  0
 10 24  1  0
 11 14  1  0
 11 26  1  0
 12 23  1  0
 13 20  1  0
 14 21  1  0
 14 24  1  0
 16 19  1  0
 16 26  1  0
 17 19  1  0
 19 20  1  0
 22 25  1  0
M  END
$$$$
