
     RDKit          3D

 18 18  0  0  0  0  0  0  0  0999 V2000
    3.2514    0.7282    0.8580 C   0  0  0  0  0  0  0  0  0  0  0  0
    1.8975    0.9156    0.1077 O   0  0  0  0  0  0  0  0  0  0  0  0
    1.6517    2.4402   -0.2331 C   0  0  0  0  0  0  0  0  0  0  0  0
    5.2298   -1.0350    1.0428 C   0  0  0  0  0  0  0  0  0  0  0  0
    7.0630   -2.0603    2.4281 C   0  0  0  0  0  0  0  0  0  0  0  0
    8.3647    1.2533    3.4807 C   0  0  0  0  0  0  0  0  0  0  0  0
    0.5421    2.9957   -0.7608 N   0  0  0  0  0  0  0  0  0  0  0  0
    9.3618    0.8365    2.8602 O   0  0  0  0  0  0  0  0  0  0  0  0
    3.5578    2.1339    1.1490 N   0  0  0  0  0  0  0  0  0  0  0  0
    7.3006    3.1935    3.1269 C   0  0  0  0  0  0  0  0  0  0  0  0
   -0.6687    2.2460   -0.8364 C   0  0  0  0  0  0  0  0  0  0  0  0
    8.2640   -2.6203    1.6937 C   0  0  0  0  0  0  0  0  0  0  0  0
    6.2686    0.9400    2.3365 N   0  0  0  0  0  0  0  0  0  0  0  0
    3.7769   -0.4481    1.3648 C   0  0  0  0  0  0  0  0  0  0  0  0
    7.3344    1.9123    2.4859 C   0  0  0  0  0  0  0  0  0  0  0  0
    6.4333   -0.5523    1.9309 C   0  0  0  0  0  0  0  0  0  0  0  0
    2.8522    3.0566    0.4695 C   0  0  0  0  0  0  0  0  0  0  0  0
    5.9937    3.7467    3.5488 O   0  0  0  0  0  0  0  0  0  0  0  0
  1  2  1  0
  1  9  2  0
  1 14  1  0
  2  3  1  0
  3  7  1  0
  3 17  1  0
  4 14  1  0
  4 16  1  0
  5 12  1  0
  5 16  1  0
  6  8  1  0
  6 15  1  0
  7 11  1  0
  9 17  1  0
 10 15  1  0
 10 18  1  0
 13 15  1  0
 13 16  1  0
M  END
$$$$
