
     RDKit          3D

 25 24  0  0  0  0  0  0  0  0999 V2000
    4.9513   -0.3127    2.6270 O   0  0  0  0  0  0  0  0  0  0  0  0
   10.0263    1.5374   -0.0997 O   0  0  0  0  0  0  0  0  0  0  0  0
    2.0184    1.9185    0.5776 C   0  0  0  0  0  0  0  0  0  0  0  0
   10.7040   -2.1221    0.5978 O   0  0  0  0  0  0  0  0  0  0  0  0
    0.8081    2.2724   -0.2069 C   0  0  0  0  0  0  0  0  0  0  0  0
    7.7297   -0.2869    2.2672 C   0  0  0  0  0  0  0  0  0  0  0  0
    7.8800    0.7858    1.6475 O   0  0  0  0  0  0  0  0  0  0  0  0
    8.3902   -3.0489    1.8519 C   0  0  0  0  0  0  0  0  0  0  0  0
    9.7751   -1.2228    0.8423 C   0  0  0  0  0  0  0  0  0  0  0  0
    3.1063    2.9240    0.8516 C   0  0  0  0  0  0  0  0  0  0  0  0
    1.7967   -1.1421    1.0212 O   0  0  0  0  0  0  0  0  0  0  0  0
    0.5345    3.4931   -0.5555 O   0  0  0  0  0  0  0  0  0  0  0  0
    5.7681    0.8273    3.3235 C   0  0  0  0  0  0  0  0  0  0  0  0
    1.8413   -0.4073   -0.1017 C   0  0  0  0  0  0  0  0  0  0  0  0
    2.9308    3.9212    0.3222 O   0  0  0  0  0  0  0  0  0  0  0  0
    4.1012    1.9967    1.7119 N   0  0  0  0  0  0  0  0  0  0  0  0
    4.9419    3.6216    3.8906 O   0  0  0  0  0  0  0  0  0  0  0  0
    6.1929   -0.9602    2.0226 C   0  0  0  0  0  0  0  0  0  0  0  0
    5.1789    4.8223    1.8950 O   0  0  0  0  0  0  0  0  0  0  0  0
    5.6945    1.8502    2.0487 C   0  0  0  0  0  0  0  0  0  0  0  0
    5.3163    3.6220    2.6840 C   0  0  0  0  0  0  0  0  0  0  0  0
    9.9977    0.1871    0.1619 C   0  0  0  0  0  0  0  0  0  0  0  0
    8.7782   -1.5964    1.9166 C   0  0  0  0  0  0  0  0  0  0  0  0
    2.8333   -1.9914    1.5007 C   0  0  0  0  0  0  0  0  0  0  0  0
    2.7934    0.7775   -0.0177 C   0  0  0  0  0  0  0  0  0  0  0  0
  1 13  1  0
  1 18  1  0
  2 22  2  0
  3  5  1  0
  3 10  1  0
  3 25  1  0
  4  9  1  0
  5 12  1  0
  6  7  1  0
  6 18  1  0
  6 23  1  0
  8 23  1  0
  9 22  2  0
  9 23  1  0
 10 15  2  0
 10 16  1  0
 11 14  1  0
 11 24  1  0
 13 20  1  0
 14 25  1  0
 16 20  1  0
 17 21  2  0
 19 21  1  0
 20 21  1  0
M  END
$$$$
