
     RDKit          3D

 35 33  0  0  0  0  0  0  0  0999 V2000
    3.3715    3.3735    1.0745 O   0  0  0  0  0  0  0  0  0  0  0  0
    5.3104    5.0373    1.9015 O   0  0  0  0  0  0  0  0  0  0  0  0
    4.9870   -0.8046    1.6759 C   0  0  0  0  0  0  0  0  0  0  0  0
    1.4600   -0.5158    0.3638 N   0  0  0  0  0  0  0  0  0  0  0  0
    2.7334   -0.6677    1.0192 C   0  0  0  0  0  0  0  0  0  0  0  0
    8.8192   -1.2931    6.0297 C   0  0  0  0  0  0  0  0  0  0  0  0
    4.6322    0.3435    1.6229 C   0  0  0  0  0  0  0  0  0  0  0  0
    7.1654    3.2014    2.8974 O   0  0  0  0  0  0  0  0  0  0  0  0
    2.4789    1.6099    0.3706 C   0  0  0  0  0  0  0  0  0  0  0  0
    5.4715    4.0228    2.7550 P   0  0  0  0  0  0  0  0  0  0  0  0
    4.7370    3.4276    3.5341 O   0  0  0  0  0  0  0  0  0  0  0  0
    6.8080    0.2379    3.5744 C   0  0  0  0  0  0  0  0  0  0  0  0
    0.3272    2.8720   -0.7705 N   0  0  0  0  0  0  0  0  0  0  0  0
    8.2361    1.2406    4.5199 C   0  0  0  0  0  0  0  0  0  0  0  0
    1.1590   -2.7089    2.0005 O   0  0  0  0  0  0  0  0  0  0  0  0
    8.8052   -1.5957    3.6027 C   0  0  0  0  0  0  0  0  0  0  0  0
    9.0189   -2.4371    2.4160 C   0  0  0  0  0  0  0  0  0  0  0  0
    3.2707    0.6061    0.9803 C   0  0  0  0  0  0  0  0  0  0  0  0
   10.8701   -2.5440    7.0015 O   0  0  0  0  0  0  0  0  0  0  0  0
    6.2893   -1.7498    1.4825 S   0  0  0  0  0  0  0  0  0  0  0  0
    8.9179   -3.3356    8.3705 C   0  0  0  0  0  0  0  0  0  0  0  0
    8.2511    2.5593    3.4653 C   0  0  0  0  0  0  0  0  0  0  0  0
    5.6784    0.8072    2.8930 C   0  0  0  0  0  0  0  0  0  0  0  0
    1.6663    3.7001   -0.2012 O   0  0  0  0  0  0  0  0  0  0  0  0
    9.3209   -2.2290    0.7991 C   0  0  0  0  0  0  0  0  0  0  0  0
    3.2035   -1.6900    1.5690 N   0  0  0  0  0  0  0  0  0  0  0  0
    8.0610   -2.4365    6.4147 C   0  0  0  0  0  0  0  0  0  0  0  0
    7.7581   -0.5147    3.7466 C   0  0  0  0  0  0  0  0  0  0  0  0
    8.6528   -3.9881    2.8225 C   0  0  0  0  0  0  0  0  0  0  0  0
    9.2325   -2.1254    6.9906 C   0  0  0  0  0  0  0  0  0  0  0  0
    7.2531    1.0124    5.6965 O   0  0  0  0  0  0  0  0  0  0  0  0
    2.5199   -2.6963    2.3996 C   0  0  0  0  0  0  0  0  0  0  0  0
    0.2192    1.6052   -0.4358 C   0  0  0  0  0  0  0  0  0  0  0  0
    2.6645    3.0914    0.2235 C   0  0  0  0  0  0  0  0  0  0  0  0
    1.1526    0.8265    0.0622 C   0  0  0  0  0  0  0  0  0  0  0  0
  1 34  2  0
  2 10  1  0
  3  7  1  0
  3 20  2  0
  4  5  1  0
  4 35  1  0
  5 18  2  0
  5 26  1  0
  6 30  1  0
  7 18  1  0
  7 23  2  3
  8 10  1  0
  8 22  1  0
  9 18  1  0
  9 34  1  0
  9 35  1  0
 10 11  1  0
 12 23  1  0
 12 28  3  0
 13 33  1  0
 14 22  1  0
 14 31  1  0
 15 32  1  0
 16 17  1  0
 16 28  1  0
 17 25  1  0
 17 29  1  0
 19 30  1  0
 21 30  1  0
 24 34  1  0
 26 32  1  0
 27 30  1  0
 33 35  2  3
M  END
$$$$
