
     RDKit          3D

 30 31  0  0  0  0  0  0  0  0999 V2000
    5.3712    2.7695    2.4186 C   0  0  0  0  0  0  0  0  0  0  0  0
    3.0900    2.6866    0.5849 C   0  0  0  0  0  0  0  0  0  0  0  0
    4.9149    4.1991    2.6150 C   0  0  0  0  0  0  0  0  0  0  0  0
    1.1087   -0.2067    0.2573 N   0  0  0  0  0  0  0  0  0  0  0  0
   -0.9420    1.5363   -0.5575 O   0  0  0  0  0  0  0  0  0  0  0  0
    2.2102   -0.8079    0.8535 C   0  0  0  0  0  0  0  0  0  0  0  0
    3.2310    0.1411    1.0742 C   0  0  0  0  0  0  0  0  0  0  0  0
    2.0596   -1.9925    1.2143 O   0  0  0  0  0  0  0  0  0  0  0  0
    5.0276    4.6245    3.8586 O   0  0  0  0  0  0  0  0  0  0  0  0
   10.0692   -1.3172    1.3072 P   0  0  0  0  0  0  0  0  0  0  0  0
    0.5009    3.2814   -0.6250 N   0  0  0  0  0  0  0  0  0  0  0  0
    2.6970    1.3990    0.6379 C   0  0  0  0  0  0  0  0  0  0  0  0
    9.9192    0.3793    0.6379 C   0  0  0  0  0  0  0  0  0  0  0  0
    8.6110   -1.2947    2.1609 O   0  0  0  0  0  0  0  0  0  0  0  0
    6.5380   -0.2811    2.8204 C   0  0  0  0  0  0  0  0  0  0  0  0
    4.9061    1.5654    2.8204 C   0  0  0  0  0  0  0  0  0  0  0  0
    0.2471    1.9541   -0.4704 C   0  0  0  0  0  0  0  0  0  0  0  0
   11.4037   -1.1737    2.1663 O   0  0  0  0  0  0  0  0  0  0  0  0
    4.1274   -3.0357    2.4655 O   0  0  0  0  0  0  0  0  0  0  0  0
    5.5895    0.5316    2.2493 N   0  0  0  0  0  0  0  0  0  0  0  0
    8.0999   -3.6528    2.6658 O   0  0  0  0  0  0  0  0  0  0  0  0
    4.6279   -1.6812    2.5084 C   0  0  0  0  0  0  0  0  0  0  0  0
    7.5801   -0.4116    1.8573 O   0  0  0  0  0  0  0  0  0  0  0  0
   10.0333   -2.5034    0.4225 O   0  0  0  0  0  0  0  0  0  0  0  0
    6.0343   -1.7123    3.1208 C   0  0  0  0  0  0  0  0  0  0  0  0
    6.7392    2.9569    2.3332 O   0  0  0  0  0  0  0  0  0  0  0  0
    4.6030    4.9143    1.6752 O   0  0  0  0  0  0  0  0  0  0  0  0
    1.3297    1.1807    0.1322 C   0  0  0  0  0  0  0  0  0  0  0  0
    4.4921   -0.4413    1.7261 C   0  0  0  0  0  0  0  0  0  0  0  0
    6.7798   -2.9495    2.6270 C   0  0  0  0  0  0  0  0  0  0  0  0
  1  3  1  0
  1 16  1  0
  1 26  1  0
  2 12  2  0
  3  9  2  0
  3 27  1  0
  4  6  1  0
  4 28  1  0
  5 17  2  0
  6  7  1  0
  6  8  2  0
  7 12  1  0
  7 29  1  0
 10 13  1  0
 10 14  1  0
 10 18  1  0
 10 24  1  0
 11 17  1  0
 12 28  1  0
 14 23  1  0
 15 20  1  0
 15 23  1  0
 15 25  1  0
 16 20  1  0
 17 28  1  0
 19 22  1  0
 20 29  1  0
 21 30  1  0
 22 25  1  0
 22 29  1  0
 25 30  1  0
M  END
$$$$
