
     RDKit          3D

 23 24  0  0  0  0  0  0  0  0999 V2000
    3.9873    0.5454    1.6597 C   0  0  0  0  0  0  0  0  0  0  0  0
    1.9903    0.3731    0.3380 C   0  0  0  0  0  0  0  0  0  0  0  0
    7.3708    0.5165    3.0577 C   0  0  0  0  0  0  0  0  0  0  0  0
    3.0531    1.2844    0.9052 C   0  0  0  0  0  0  0  0  0  0  0  0
    2.7317    2.6134    0.6080 C   0  0  0  0  0  0  0  0  0  0  0  0
    4.8325   -1.8241    1.4635 C   0  0  0  0  0  0  0  0  0  0  0  0
    3.3093    3.8043    0.7348 O   0  0  0  0  0  0  0  0  0  0  0  0
    5.8076    3.7644    2.1251 O   0  0  0  0  0  0  0  0  0  0  0  0
    6.2528   -0.1196    2.4261 C   0  0  0  0  0  0  0  0  0  0  0  0
    6.2216   -1.4390    1.9717 C   0  0  0  0  0  0  0  0  0  0  0  0
    7.3211   -1.8812    1.0491 C   0  0  0  0  0  0  0  0  0  0  0  0
    5.2862    0.8897    2.1026 C   0  0  0  0  0  0  0  0  0  0  0  0
    3.7233   -0.8685    1.6540 C   0  0  0  0  0  0  0  0  0  0  0  0
    1.4353    2.6590   -0.0927 C   0  0  0  0  0  0  0  0  0  0  0  0
    2.5244   -0.9964    0.7145 C   0  0  0  0  0  0  0  0  0  0  0  0
    0.9936    1.2572   -0.2800 C   0  0  0  0  0  0  0  0  0  0  0  0
    7.4358    3.4567    3.9348 O   0  0  0  0  0  0  0  0  0  0  0  0
    5.0130    2.8389    4.2487 O   0  0  0  0  0  0  0  0  0  0  0  0
    8.7335   -1.8545    1.5123 C   0  0  0  0  0  0  0  0  0  0  0  0
    9.5111   -2.7245    0.6305 O   0  0  0  0  0  0  0  0  0  0  0  0
    6.1435    3.3088    3.4277 P   0  0  0  0  0  0  0  0  0  0  0  0
   -0.2694    0.9184   -0.3998 O   0  0  0  0  0  0  0  0  0  0  0  0
    0.7347    3.7111   -0.4855 N   0  0  0  0  0  0  0  0  0  0  0  0
  1  4  1  0
  1 12  1  0
  1 13  1  0
  2  4  1  0
  2 15  1  0
  2 16  1  0
  3  9  1  0
  4  5  2  0
  5  7  1  0
  5 14  1  0
  6 10  1  0
  6 13  1  0
  8 21  1  0
  9 10  1  0
  9 12  1  0
 10 11  1  0
 11 19  1  0
 13 15  1  0
 14 16  1  0
 14 23  2  0
 16 22  1  0
 17 21  1  0
 18 21  1  0
 19 20  1  0
M  END
$$$$
