
     RDKit          3D

 24 25  0  0  0  0  0  0  0  0999 V2000
    4.4062    4.0443    2.7901 O   0  0  0  0  0  0  0  0  0  0  0  0
    3.0695    3.7433    0.3996 O   0  0  0  0  0  0  0  0  0  0  0  0
   -0.2677    0.6316   -0.3561 O   0  0  0  0  0  0  0  0  0  0  0  0
    5.0451   -0.9667    2.0127 C   0  0  0  0  0  0  0  0  0  0  0  0
    0.2336    3.8140    0.0924 O   0  0  0  0  0  0  0  0  0  0  0  0
    2.0315   -0.3394    0.2398 C   0  0  0  0  0  0  0  0  0  0  0  0
    5.2360    3.0519    2.2965 C   0  0  0  0  0  0  0  0  0  0  0  0
    5.1625    0.3865    2.7352 C   0  0  0  0  0  0  0  0  0  0  0  0
    4.1200   -1.9633    2.5557 O   0  0  0  0  0  0  0  0  0  0  0  0
    6.4710    3.1584    2.4558 O   0  0  0  0  0  0  0  0  0  0  0  0
    4.6439    1.6650    2.0274 C   0  0  0  0  0  0  0  0  0  0  0  0
    6.9170   -1.7560    3.3798 C   0  0  0  0  0  0  0  0  0  0  0  0
    0.8939    3.0345   -0.9117 N   0  0  0  0  0  0  0  0  0  0  0  0
    3.2173    0.1834    0.8331 N   0  0  0  0  0  0  0  0  0  0  0  0
    1.1008    0.6020   -0.3962 C   0  0  0  0  0  0  0  0  0  0  0  0
    3.3659    1.4586    1.3257 C   0  0  0  0  0  0  0  0  0  0  0  0
    1.6168    1.9827   -0.2878 C   0  0  0  0  0  0  0  0  0  0  0  0
    8.9243   -3.3079    1.5963 C   0  0  0  0  0  0  0  0  0  0  0  0
    2.5708    2.4898    0.7244 C   0  0  0  0  0  0  0  0  0  0  0  0
    6.4586   -1.6633    2.0476 C   0  0  0  0  0  0  0  0  0  0  0  0
    8.7617   -1.8556    1.0822 C   0  0  0  0  0  0  0  0  0  0  0  0
    4.4532   -0.5938    0.6188 C   0  0  0  0  0  0  0  0  0  0  0  0
    9.6395   -4.0844    0.5814 F   0  0  0  0  0  0  0  0  0  0  0  0
    7.2733   -1.5474    0.8102 C   0  0  0  0  0  0  0  0  0  0  0  0
  1  7  2  0
  2 19  1  0
  3 15  1  0
  4  8  1  0
  4  9  1  0
  4 20  1  0
  4 22  1  0
  5 13  1  0
  6 14  1  0
  6 15  1  0
  7 10  1  0
  7 11  1  0
  8 11  1  0
 11 16  1  0
 12 20  1  0
 13 17  1  0
 14 16  1  0
 14 22  1  0
 15 17  1  0
 16 19  1  0
 17 19  1  0
 18 21  1  0
 18 23  1  0
 20 24  1  0
 21 24  1  0
M  END
$$$$
