
     RDKit          3D

 28 28  0  0  0  0  0  0  0  0999 V2000
    9.0088   -1.5595   -0.3960 C   0  0  0  0  0  0  0  0  0  0  0  0
    6.8813    2.6440    3.5404 P   0  0  0  0  0  0  0  0  0  0  0  0
    1.9095   -1.2945    0.8562 N   0  0  0  0  0  0  0  0  0  0  0  0
    4.5226   -1.2982    0.8933 C   0  0  0  0  0  0  0  0  0  0  0  0
    5.5888   -2.9726    3.2966 C   0  0  0  0  0  0  0  0  0  0  0  0
    3.0785    2.4143    1.2903 O   0  0  0  0  0  0  0  0  0  0  0  0
    6.2731    2.8071    2.2155 O   0  0  0  0  0  0  0  0  0  0  0  0
    8.8950   -0.9885    0.9882 C   0  0  0  0  0  0  0  0  0  0  0  0
    2.5000   -2.1751    1.5636 C   0  0  0  0  0  0  0  0  0  0  0  0
    6.9659   -2.2221    2.7442 C   0  0  0  0  0  0  0  0  0  0  0  0
    2.5580    2.9273    0.0972 C   0  0  0  0  0  0  0  0  0  0  0  0
    4.4014   -3.3229    2.5853 C   0  0  0  0  0  0  0  0  0  0  0  0
    7.4370    0.2241    2.4438 O   0  0  0  0  0  0  0  0  0  0  0  0
    9.2794    0.4858    1.0213 C   0  0  0  0  0  0  0  0  0  0  0  0
    0.3502    1.0264   -0.3076 C   0  0  0  0  0  0  0  0  0  0  0  0
    3.8992   -0.3736    0.1187 C   0  0  0  0  0  0  0  0  0  0  0  0
    8.6501    1.1201    2.2674 C   0  0  0  0  0  0  0  0  0  0  0  0
    3.8643   -2.1997    1.6585 N   0  0  0  0  0  0  0  0  0  0  0  0
    7.6234   -1.0645    1.7619 C   0  0  0  0  0  0  0  0  0  0  0  0
   -0.0998    2.3030   -0.8388 N   0  0  0  0  0  0  0  0  0  0  0  0
    2.4677   -0.3258    0.1505 C   0  0  0  0  0  0  0  0  0  0  0  0
    9.5566    1.3255    0.0287 O   0  0  0  0  0  0  0  0  0  0  0  0
    8.5051   -0.7131   -1.4207 O   0  0  0  0  0  0  0  0  0  0  0  0
    7.8864    3.5355    3.9689 O   0  0  0  0  0  0  0  0  0  0  0  0
    9.5852    2.4116    2.4399 C   0  0  0  0  0  0  0  0  0  0  0  0
    2.3705    1.9214   -0.8762 N   0  0  0  0  0  0  0  0  0  0  0  0
    6.3721    1.6422    4.5275 O   0  0  0  0  0  0  0  0  0  0  0  0
    1.7365    0.7374   -0.5284 C   0  0  0  0  0  0  0  0  0  0  0  0
  1  8  1  0
  1 23  1  0
  2  7  1  0
  2 24  1  0
  2 27  1  0
  3  9  2  0
  3 21  1  0
  4 16  1  0
  4 18  1  0
  5 10  1  0
  5 12  1  0
  6 11  1  0
  8 14  1  0
  8 19  1  0
  9 18  1  0
 10 19  1  0
 11 26  1  0
 12 18  1  0
 13 17  1  0
 13 19  1  0
 14 17  1  0
 14 22  1  0
 15 20  1  0
 15 28  1  0
 16 21  2  0
 17 25  1  0
 21 28  1  0
 26 28  1  0
M  END
$$$$
