
     RDKit          3D

 26 28  0  0  0  0  0  0  0  0999 V2000
    4.5525    2.1728    2.5956 C   0  0  0  0  0  0  0  0  0  0  0  0
    5.8549    3.7391    3.8089 C   0  0  0  0  0  0  0  0  0  0  0  0
   -0.1619    3.2561   -0.3851 C   0  0  0  0  0  0  0  0  0  0  0  0
    5.5451    1.1841    3.0250 C   0  0  0  0  0  0  0  0  0  0  0  0
    7.6562   -1.7605    1.4466 C   0  0  0  0  0  0  0  0  0  0  0  0
    1.3580    1.2308   -0.1826 C   0  0  0  0  0  0  0  0  0  0  0  0
    4.6384   -0.4053    1.3616 C   0  0  0  0  0  0  0  0  0  0  0  0
    8.1169   -4.1041    2.5194 C   0  0  0  0  0  0  0  0  0  0  0  0
    2.6900    1.6714    0.1856 C   0  0  0  0  0  0  0  0  0  0  0  0
    3.4609    0.3877    0.6454 C   0  0  0  0  0  0  0  0  0  0  0  0
    4.9124    3.5980    2.7505 C   0  0  0  0  0  0  0  0  0  0  0  0
    4.8829    4.4683    1.7936 O   0  0  0  0  0  0  0  0  0  0  0  0
    5.3662   -2.6108    2.1016 C   0  0  0  0  0  0  0  0  0  0  0  0
    5.7338   -0.2216    2.3978 C   0  0  0  0  0  0  0  0  0  0  0  0
    0.2009    1.8951   -0.3714 N   0  0  0  0  0  0  0  0  0  0  0  0
    7.1256    3.3548    3.6785 O   0  0  0  0  0  0  0  0  0  0  0  0
    8.5152   -3.0132    1.5737 C   0  0  0  0  0  0  0  0  0  0  0  0
    2.6101   -0.6391    0.1045 C   0  0  0  0  0  0  0  0  0  0  0  0
    6.0237    1.3289    4.4049 C   0  0  0  0  0  0  0  0  0  0  0  0
   -0.8745    1.1170   -0.2881 O   0  0  0  0  0  0  0  0  0  0  0  0
    6.1926    2.7413    4.7354 C   0  0  0  0  0  0  0  0  0  0  0  0
    9.4889   -3.1067    0.5619 C   0  0  0  0  0  0  0  0  0  0  0  0
    6.4842   -1.5921    2.4299 C   0  0  0  0  0  0  0  0  0  0  0  0
    4.2861   -1.8691    1.3892 C   0  0  0  0  0  0  0  0  0  0  0  0
    1.3739   -0.0696   -0.0681 N   0  0  0  0  0  0  0  0  0  0  0  0
    2.7742    3.1712    0.1003 N   0  0  0  0  0  0  0  0  0  0  0  0
  1  4  1  0
  1 11  1  0
  2 11  1  0
  2 16  1  0
  2 21  1  0
  3 15  1  0
  4 14  1  0
  4 19  1  0
  5 17  2  3
  5 23  1  0
  6  9  1  0
  6 15  1  0
  6 25  2  0
  7 10  1  0
  7 14  1  0
  7 24  1  0
  8 17  1  0
  9 10  1  0
  9 26  1  0
 10 18  1  0
 11 12  1  0
 13 23  1  0
 13 24  1  0
 14 23  1  0
 15 20  1  0
 17 22  1  0
 18 25  1  0
 19 21  1  0
M  END
$$$$
