
     RDKit          3D

 18 17  0  0  0  0  0  0  0  0999 V2000
    3.1877    0.5172    0.7127 C   0  0  0  0  0  0  0  0  0  0  0  0
    1.8790    0.7435    0.0891 C   0  0  0  0  0  0  0  0  0  0  0  0
    1.6548    2.1934    0.1469 C   0  0  0  0  0  0  0  0  0  0  0  0
    4.0317   -0.6465    0.3400 C   0  0  0  0  0  0  0  0  0  0  0  0
    6.9124   -2.5213    2.2664 C   0  0  0  0  0  0  0  0  0  0  0  0
    8.2677    1.8123    3.3783 C   0  0  0  0  0  0  0  0  0  0  0  0
    0.7763    2.7714   -0.6337 N   0  0  0  0  0  0  0  0  0  0  0  0
    8.7530    1.1012    2.1685 C   0  0  0  0  0  0  0  0  0  0  0  0
    3.6269    1.7431    1.1232 N   0  0  0  0  0  0  0  0  0  0  0  0
    6.6734    3.6434    3.9512 N   0  0  0  0  0  0  0  0  0  0  0  0
   -0.5852    2.4164   -0.8470 C   0  0  0  0  0  0  0  0  0  0  0  0
    8.3305   -2.7707    1.6347 C   0  0  0  0  0  0  0  0  0  0  0  0
    6.4447    2.4792    2.0605 O   0  0  0  0  0  0  0  0  0  0  0  0
    4.6212   -1.4778    1.5014 C   0  0  0  0  0  0  0  0  0  0  0  0
    7.0971    2.6525    3.1007 C   0  0  0  0  0  0  0  0  0  0  0  0
    6.1501   -1.5061    1.3920 C   0  0  0  0  0  0  0  0  0  0  0  0
    2.8428    2.7845    0.7010 C   0  0  0  0  0  0  0  0  0  0  0  0
    5.3507    4.0657    3.8266 C   0  0  0  0  0  0  0  0  0  0  0  0
  1  2  1  0
  1  4  1  0
  1  9  1  0
  2  3  1  0
  3  7  1  0
  3 17  1  0
  4 14  1  0
  5 12  1  0
  5 16  1  0
  6  8  1  0
  6 15  1  0
  7 11  1  0
  9 17  1  0
 10 15  1  0
 10 18  1  0
 13 15  2  0
 14 16  1  0
M  END
$$$$
