
     RDKit          3D

 25 26  0  0  0  0  0  0  0  0999 V2000
    4.7905    2.9011    2.9832 C   0  0  0  0  0  0  0  0  0  0  0  0
    1.3953    1.1744   -0.0957 C   0  0  0  0  0  0  0  0  0  0  0  0
    7.0106   -2.9171    2.3526 C   0  0  0  0  0  0  0  0  0  0  0  0
    9.1576   -3.1920    0.3923 C   0  0  0  0  0  0  0  0  0  0  0  0
    4.0984    2.1252    1.8908 C   0  0  0  0  0  0  0  0  0  0  0  0
    6.0567   -1.1116    0.9475 C   0  0  0  0  0  0  0  0  0  0  0  0
    0.3825    1.4580   -1.0745 O   0  0  0  0  0  0  0  0  0  0  0  0
    2.5967   -1.0190    0.8017 C   0  0  0  0  0  0  0  0  0  0  0  0
    1.2693    3.5940   -0.2228 N   0  0  0  0  0  0  0  0  0  0  0  0
    7.4091    2.7022    3.2331 P   0  0  0  0  0  0  0  0  0  0  0  0
    8.4477   -1.7871    0.3413 C   0  0  0  0  0  0  0  0  0  0  0  0
    2.2784   -2.7201    2.6701 C   0  0  0  0  0  0  0  0  0  0  0  0
    4.8261   -1.6374    1.7052 C   0  0  0  0  0  0  0  0  0  0  0  0
    5.4233   -2.8190    2.5861 C   0  0  0  0  0  0  0  0  0  0  0  0
    2.0113   -0.1670   -0.1898 C   0  0  0  0  0  0  0  0  0  0  0  0
    2.2097    2.4869    0.1536 C   0  0  0  0  0  0  0  0  0  0  0  0
    7.3564   -1.7331    1.4261 C   0  0  0  0  0  0  0  0  0  0  0  0
    6.9700    1.9025    4.4733 O   0  0  0  0  0  0  0  0  0  0  0  0
    3.7419   -0.5076    1.6038 C   0  0  0  0  0  0  0  0  0  0  0  0
    8.4285    3.6448    3.6519 O   0  0  0  0  0  0  0  0  0  0  0  0
    7.8363    1.9281    1.9418 O   0  0  0  0  0  0  0  0  0  0  0  0
    6.0798    3.5254    2.6323 O   0  0  0  0  0  0  0  0  0  0  0  0
    4.0857    0.8360    1.3130 O   0  0  0  0  0  0  0  0  0  0  0  0
    3.2853    3.1053    1.0841 C   0  0  0  0  0  0  0  0  0  0  0  0
    1.9690   -2.1025    1.3936 N   0  0  0  0  0  0  0  0  0  0  0  0
  1  5  1  0
  1 22  1  0
  2  7  1  0
  2 15  1  0
  2 16  1  0
  3 14  1  0
  3 17  1  0
  4 11  1  0
  5 23  1  0
  5 24  1  0
  6 13  1  0
  6 17  1  0
  8 15  1  0
  8 19  1  0
  8 25  1  0
  9 16  1  0
 10 18  1  0
 10 20  1  0
 10 21  1  0
 10 22  1  0
 11 17  1  0
 12 25  1  0
 13 14  1  0
 13 19  1  0
 16 24  1  0
 19 23  1  0
M  END
$$$$
