
     RDKit          3D

 21 22  0  0  0  0  0  0  0  0999 V2000
    5.3683    0.2599    1.9120 C   0  0  0  0  0  0  0  0  0  0  0  0
    7.6417    3.4234    4.0321 O   0  0  0  0  0  0  0  0  0  0  0  0
    3.8393   -0.0952    1.2251 C   0  0  0  0  0  0  0  0  0  0  0  0
    4.2843   -1.6636    1.3698 C   0  0  0  0  0  0  0  0  0  0  0  0
    2.8596    3.9485   -0.0894 N   0  0  0  0  0  0  0  0  0  0  0  0
    1.4920   -0.6053   -0.0352 O   0  0  0  0  0  0  0  0  0  0  0  0
    3.3933   -2.4795    2.1027 O   0  0  0  0  0  0  0  0  0  0  0  0
    5.4077    4.8028    3.9051 O   0  0  0  0  0  0  0  0  0  0  0  0
    1.9359    2.9426   -0.3150 C   0  0  0  0  0  0  0  0  0  0  0  0
    3.2514    1.3046    0.8978 C   0  0  0  0  0  0  0  0  0  0  0  0
    5.2601    2.7413    5.1003 O   0  0  0  0  0  0  0  0  0  0  0  0
    5.4979   -1.5130    3.6217 O   0  0  0  0  0  0  0  0  0  0  0  0
    6.0591    2.8001    2.3182 O   0  0  0  0  0  0  0  0  0  0  0  0
    1.1147    0.6525   -0.1224 C   0  0  0  0  0  0  0  0  0  0  0  0
    5.6192   -1.3170    2.2510 C   0  0  0  0  0  0  0  0  0  0  0  0
    3.8629    2.2288    1.7092 N   0  0  0  0  0  0  0  0  0  0  0  0
   -0.1436    1.0086   -0.2194 N   0  0  0  0  0  0  0  0  0  0  0  0
    5.0858    1.7867    2.2473 C   0  0  0  0  0  0  0  0  0  0  0  0
    2.0535    1.6609    0.1853 C   0  0  0  0  0  0  0  0  0  0  0  0
    6.0523    3.4144    3.8618 P   0  0  0  0  0  0  0  0  0  0  0  0
    6.6307   -1.9965    1.6685 O   0  0  0  0  0  0  0  0  0  0  0  0
  1  3  1  0
  1 15  1  0
  1 18  1  0
  2 20  1  0
  3  4  1  0
  3 10  1  0
  4  7  1  0
  4 15  1  0
  5  9  1  0
  6 14  2  0
  8 20  1  0
  9 19  2  3
 10 16  1  0
 10 19  1  0
 11 20  1  0
 12 15  1  0
 13 18  1  0
 13 20  1  0
 14 17  1  0
 14 19  1  0
 15 21  1  0
 16 18  1  0
M  END
$$$$
