
     RDKit          3D

 35 37  0  0  0  0  0  0  0  0999 V2000
    7.1878    1.5601    2.8312 C   0  0  0  0  0  0  0  0  0  0  0  0
    3.7060   -2.3875    3.7314 C   0  0  0  0  0  0  0  0  0  0  0  0
    5.5000   -0.5746    3.1288 N   0  0  0  0  0  0  0  0  0  0  0  0
   -0.2031    2.4536   -0.5113 N   0  0  0  0  0  0  0  0  0  0  0  0
   11.1413    2.0470   -1.3984 C   0  0  0  0  0  0  0  0  0  0  0  0
    5.4483    3.1006    4.3312 C   0  0  0  0  0  0  0  0  0  0  0  0
   -0.0514    1.1743   -0.4209 C   0  0  0  0  0  0  0  0  0  0  0  0
   10.3205    1.1443    0.7709 C   0  0  0  0  0  0  0  0  0  0  0  0
    9.9719   -1.5978    1.0001 C   0  0  0  0  0  0  0  0  0  0  0  0
    7.5612   -1.4443    2.0371 C   0  0  0  0  0  0  0  0  0  0  0  0
    4.9219   -3.1186    4.2414 C   0  0  0  0  0  0  0  0  0  0  0  0
    4.9805   -3.8991    5.2388 O   0  0  0  0  0  0  0  0  0  0  0  0
   10.5711   -0.4789   -1.1228 C   0  0  0  0  0  0  0  0  0  0  0  0
    0.9012    3.1822   -0.2895 N   0  0  0  0  0  0  0  0  0  0  0  0
    4.4317   -0.1660    0.9957 C   0  0  0  0  0  0  0  0  0  0  0  0
    3.5119    0.5607    0.1877 C   0  0  0  0  0  0  0  0  0  0  0  0
    9.0599   -1.4797    2.1837 C   0  0  0  0  0  0  0  0  0  0  0  0
    6.2374   -1.7425    2.6797 C   0  0  0  0  0  0  0  0  0  0  0  0
    6.1127   -3.0371    3.3794 C   0  0  0  0  0  0  0  0  0  0  0  0
    3.5436   -0.7819    0.1232 C   0  0  0  0  0  0  0  0  0  0  0  0
    5.1512    4.2887    4.0637 O   0  0  0  0  0  0  0  0  0  0  0  0
    4.8206    1.9148    3.5470 C   0  0  0  0  0  0  0  0  0  0  0  0
    3.1648    3.4277    0.3680 O   0  0  0  0  0  0  0  0  0  0  0  0
   10.2760   -0.2999    0.3493 C   0  0  0  0  0  0  0  0  0  0  0  0
    7.0622   -4.1079    3.2023 C   0  0  0  0  0  0  0  0  0  0  0  0
    2.1414    2.6859   -0.0053 C   0  0  0  0  0  0  0  0  0  0  0  0
    1.1012    0.5532   -0.1913 C   0  0  0  0  0  0  0  0  0  0  0  0
   10.8599    0.6896   -2.0535 C   0  0  0  0  0  0  0  0  0  0  0  0
    2.2386    1.2426   -0.0079 C   0  0  0  0  0  0  0  0  0  0  0  0
    6.2501    2.8231    5.2498 O   0  0  0  0  0  0  0  0  0  0  0  0
    4.9807   -1.2476    1.9710 C   0  0  0  0  0  0  0  0  0  0  0  0
    3.8539   -2.2989    2.1939 C   0  0  0  0  0  0  0  0  0  0  0  0
   11.5077    1.8777    0.0509 C   0  0  0  0  0  0  0  0  0  0  0  0
   10.1350    3.0864   -1.5803 N   0  0  0  0  0  0  0  0  0  0  0  0
    5.7614    0.8365    3.0056 C   0  0  0  0  0  0  0  0  0  0  0  0
  1 35  1  0
  2 11  1  0
  2 32  1  0
  3 18  1  0
  3 31  1  0
  3 35  1  0
  4  7  2  0
  4 14  1  0
  5 28  1  0
  5 33  1  0
  5 34  1  0
  6 21  2  0
  6 22  1  0
  6 30  1  0
  7 27  1  0
  8 24  1  0
  8 33  1  0
  9 17  1  0
  9 24  1  0
 10 17  1  0
 10 18  1  0
 11 12  2  0
 11 19  1  0
 13 24  2  0
 13 28  1  0
 14 26  1  0
 15 20  1  0
 15 31  1  0
 16 20  1  0
 16 29  1  0
 18 19  1  0
 19 25  1  0
 22 35  1  0
 23 26  2  0
 26 29  1  0
 27 29  2  0
 31 32  1  0
M  END
$$$$
