
     RDKit          3D

 22 23  0  0  0  0  0  0  0  0999 V2000
    2.8721    3.4336    0.3937 C   0  0  0  0  0  0  0  0  0  0  0  0
    4.4901    0.0563    1.6454 N   0  0  0  0  0  0  0  0  0  0  0  0
    3.8121   -0.9756    0.8634 C   0  0  0  0  0  0  0  0  0  0  0  0
    1.1963   -0.2252   -0.1140 O   0  0  0  0  0  0  0  0  0  0  0  0
    0.3751    3.8834   -0.3404 N   0  0  0  0  0  0  0  0  0  0  0  0
    6.5311   -2.9554    2.7439 C   0  0  0  0  0  0  0  0  0  0  0  0
    3.5767   -2.1494    1.5661 O   0  0  0  0  0  0  0  0  0  0  0  0
    3.8147    1.4013    1.4361 C   0  0  0  0  0  0  0  0  0  0  0  0
    0.7100    2.5320   -0.4157 C   0  0  0  0  0  0  0  0  0  0  0  0
    6.2871    0.6715    3.1501 C   0  0  0  0  0  0  0  0  0  0  0  0
    2.1372    2.3120   -0.1324 C   0  0  0  0  0  0  0  0  0  0  0  0
    0.1231    1.8634   -1.3227 O   0  0  0  0  0  0  0  0  0  0  0  0
    8.4005    2.2734    1.6211 O   0  0  0  0  0  0  0  0  0  0  0  0
    5.4840   -0.5374    2.6099 C   0  0  0  0  0  0  0  0  0  0  0  0
    6.8551    3.5386    3.9627 O   0  0  0  0  0  0  0  0  0  0  0  0
    2.7434    1.1385    0.4939 C   0  0  0  0  0  0  0  0  0  0  0  0
    9.1953    3.1194    3.7535 O   0  0  0  0  0  0  0  0  0  0  0  0
    7.8298    2.7620    3.0660 P   0  0  0  0  0  0  0  0  0  0  0  0
    6.3840   -1.6333    1.9233 C   0  0  0  0  0  0  0  0  0  0  0  0
    2.4409   -0.3142    0.4353 C   0  0  0  0  0  0  0  0  0  0  0  0
    3.6947    2.9255    1.5616 O   0  0  0  0  0  0  0  0  0  0  0  0
    6.1579    1.9158    2.3399 O   0  0  0  0  0  0  0  0  0  0  0  0
  1 11  1  0
  1 21  1  0
  2  3  1  0
  2  8  1  0
  2 14  1  0
  3  7  1  0
  3 20  1  0
  4 20  1  0
  5  9  1  0
  6 19  1  0
  8 16  1  0
  8 21  1  0
  9 11  1  0
  9 12  2  0
 10 14  1  0
 10 22  1  0
 11 16  1  0
 13 18  1  0
 14 19  1  0
 15 18  1  0
 16 20  1  0
 17 18  1  0
 18 22  1  0
M  END
$$$$
