
     RDKit          3D

 25 27  0  0  0  0  0  0  0  0999 V2000
    2.1259   -1.2910    0.8252 C   0  0  0  0  0  0  0  0  0  0  0  0
    3.6164   -1.5221    1.1490 C   0  0  0  0  0  0  0  0  0  0  0  0
    4.2309   -0.1227    1.1763 C   0  0  0  0  0  0  0  0  0  0  0  0
    0.9072    0.7790   -0.0719 C   0  0  0  0  0  0  0  0  0  0  0  0
    0.5489    2.0522   -0.3347 C   0  0  0  0  0  0  0  0  0  0  0  0
    2.5768    3.0504    0.4986 N   0  0  0  0  0  0  0  0  0  0  0  0
    4.8337    4.8285    1.7084 O   0  0  0  0  0  0  0  0  0  0  0  0
    1.4249    3.0753   -0.0687 C   0  0  0  0  0  0  0  0  0  0  0  0
    8.0736   -2.2464    1.1783 C   0  0  0  0  0  0  0  0  0  0  0  0
   10.2838   -3.2687    1.9338 C   0  0  0  0  0  0  0  0  0  0  0  0
    5.1932    4.2599    4.0820 O   0  0  0  0  0  0  0  0  0  0  0  0
    7.0877   -2.1221    2.3467 C   0  0  0  0  0  0  0  0  0  0  0  0
    9.0952   -3.3835    0.9323 C   0  0  0  0  0  0  0  0  0  0  0  0
    6.4336    2.9774    2.2812 O   0  0  0  0  0  0  0  0  0  0  0  0
    2.0050    0.2169    0.4795 C   0  0  0  0  0  0  0  0  0  0  0  0
    3.1437    0.8391    0.9416 N   0  0  0  0  0  0  0  0  0  0  0  0
   -0.7322    2.3706   -0.8516 Cl  0  0  0  0  0  0  0  0  0  0  0  0
    3.2322    2.1400    1.2437 C   0  0  0  0  0  0  0  0  0  0  0  0
    3.9819    2.5085    2.4389 C   0  0  0  0  0  0  0  0  0  0  0  0
    5.5777   -0.3088    1.5674 O   0  0  0  0  0  0  0  0  0  0  0  0
    4.4390   -2.2665    2.1926 C   0  0  0  0  0  0  0  0  0  0  0  0
    5.7776   -1.5584    2.2123 C   0  0  0  0  0  0  0  0  0  0  0  0
    1.4864   -2.0098    1.9877 O   0  0  0  0  0  0  0  0  0  0  0  0
   10.3553   -4.5819    2.6855 C   0  0  0  0  0  0  0  0  0  0  0  0
    5.1096    3.6565    2.6169 P   0  0  0  0  0  0  0  0  0  0  0  0
  1  2  1  0
  1 15  1  0
  1 23  1  0
  2  3  1  0
  2 21  1  0
  3 16  1  0
  3 20  1  0
  4  5  1  0
  4 15  2  0
  5  8  1  0
  5 17  1  0
  6  8  2  0
  6 18  1  0
  7 25  1  0
  9 12  1  0
  9 13  1  0
 10 13  1  0
 10 24  1  0
 11 25  1  0
 12 22  1  0
 14 25  1  0
 15 16  1  0
 16 18  1  0
 18 19  1  0
 19 25  1  0
 20 22  1  0
 21 22  1  0
M  END
$$$$
