
     RDKit          3D

 27 29  0  0  0  0  0  0  0  0999 V2000
    5.4586   -2.3924    2.0623 C   0  0  0  0  0  0  0  0  0  0  0  0
    7.0296   -5.0004    2.6569 O   0  0  0  0  0  0  0  0  0  0  0  0
    5.5223   -3.2684    3.2861 C   0  0  0  0  0  0  0  0  0  0  0  0
    8.6664   -0.0574    1.7560 C   0  0  0  0  0  0  0  0  0  0  0  0
    1.8086    0.2892    0.3798 C   0  0  0  0  0  0  0  0  0  0  0  0
    6.4802   -1.4269    1.6169 C   0  0  0  0  0  0  0  0  0  0  0  0
    8.0115   -2.7813    3.0944 C   0  0  0  0  0  0  0  0  0  0  0  0
    4.4680   -4.0641    3.6635 O   0  0  0  0  0  0  0  0  0  0  0  0
    3.7018    1.6086    1.0763 N   0  0  0  0  0  0  0  0  0  0  0  0
    0.4737    1.9988   -0.3716 C   0  0  0  0  0  0  0  0  0  0  0  0
    2.5163    1.5207    0.5355 C   0  0  0  0  0  0  0  0  0  0  0  0
    4.1740   -2.0452    1.6864 N   0  0  0  0  0  0  0  0  0  0  0  0
    6.9279   -3.8249    3.4362 C   0  0  0  0  0  0  0  0  0  0  0  0
    2.1042    3.6829   -0.1199 N   0  0  0  0  0  0  0  0  0  0  0  0
    0.5704    0.6015   -0.1183 C   0  0  0  0  0  0  0  0  0  0  0  0
    9.3195   -0.8773    0.4679 C   0  0  0  0  0  0  0  0  0  0  0  0
    7.8249   -1.5708    2.2024 N   0  0  0  0  0  0  0  0  0  0  0  0
    7.3357    3.2632    3.8730 O   0  0  0  0  0  0  0  0  0  0  0  0
    8.2901    0.5944    3.2632 C   0  0  0  0  0  0  0  0  0  0  0  0
    9.8359    2.9402    3.9037 O   0  0  0  0  0  0  0  0  0  0  0  0
    4.2340    0.4452    1.5113 C   0  0  0  0  0  0  0  0  0  0  0  0
    2.3747   -0.8753    0.7454 N   0  0  0  0  0  0  0  0  0  0  0  0
    3.6109   -0.8135    1.3101 C   0  0  0  0  0  0  0  0  0  0  0  0
    8.6477    2.5045    1.6895 O   0  0  0  0  0  0  0  0  0  0  0  0
    1.6079    2.5934    0.0031 C   0  0  0  0  0  0  0  0  0  0  0  0
    8.4825    2.4248    3.3236 P   0  0  0  0  0  0  0  0  0  0  0  0
    9.4278    1.3802    1.1851 C   0  0  0  0  0  0  0  0  0  0  0  0
  1  3  1  0
  1  6  1  0
  1 12  1  0
  2 13  1  0
  3  8  1  0
  3 13  1  0
  4 16  1  0
  4 17  1  0
  4 19  1  0
  4 27  1  0
  5 11  2  0
  5 15  1  0
  5 22  1  0
  6 17  1  0
  7 13  1  0
  7 17  1  0
  9 11  1  0
  9 21  2  0
 10 15  1  0
 10 25  1  0
 11 25  1  0
 12 23  1  0
 14 25  2  0
 18 26  1  0
 20 26  1  0
 21 23  1  0
 22 23  2  0
 24 26  1  0
 24 27  1  0
M  END
$$$$
