
     RDKit          3D

 28 29  0  0  0  0  0  0  0  0999 V2000
    6.7327   -2.2896    1.9813 C   0  0  0  0  0  0  0  0  0  0  0  0
    2.6673    2.3484    0.1750 C   0  0  0  0  0  0  0  0  0  0  0  0
    4.2344    0.2481    0.8489 C   0  0  0  0  0  0  0  0  0  0  0  0
    7.5720    0.2185    2.0979 C   0  0  0  0  0  0  0  0  0  0  0  0
    5.3617   -1.8984    2.2026 O   0  0  0  0  0  0  0  0  0  0  0  0
    9.8872    2.9677    2.8964 O   0  0  0  0  0  0  0  0  0  0  0  0
    5.4444    3.0310    2.2361 N   0  0  0  0  0  0  0  0  0  0  0  0
    1.8843    0.1397    0.3844 C   0  0  0  0  0  0  0  0  0  0  0  0
    0.4353    1.8441   -0.3241 C   0  0  0  0  0  0  0  0  0  0  0  0
    2.5747   -2.6893    2.5623 C   0  0  0  0  0  0  0  0  0  0  0  0
    7.4007    2.7309    3.8364 C   0  0  0  0  0  0  0  0  0  0  0  0
    0.6702    0.5999   -0.0066 N   0  0  0  0  0  0  0  0  0  0  0  0
    7.4863   -1.1564    1.2860 C   0  0  0  0  0  0  0  0  0  0  0  0
    2.9340    1.0286    0.4686 C   0  0  0  0  0  0  0  0  0  0  0  0
    8.8482   -1.5946    1.0137 O   0  0  0  0  0  0  0  0  0  0  0  0
    1.1208   -2.6195    2.4452 O   0  0  0  0  0  0  0  0  0  0  0  0
    9.1344    2.3149    2.1047 C   0  0  0  0  0  0  0  0  0  0  0  0
    1.4327    2.7567   -0.2524 N   0  0  0  0  0  0  0  0  0  0  0  0
   -0.7983    2.2287   -0.6142 O   0  0  0  0  0  0  0  0  0  0  0  0
    9.2367    2.2743    0.8602 O   0  0  0  0  0  0  0  0  0  0  0  0
    3.1330   -1.8521    1.4419 C   0  0  0  0  0  0  0  0  0  0  0  0
    4.4834   -1.1800    1.1948 C   0  0  0  0  0  0  0  0  0  0  0  0
    5.4352    4.4563    4.1690 O   0  0  0  0  0  0  0  0  0  0  0  0
    5.0619    2.1182    4.7862 C   0  0  0  0  0  0  0  0  0  0  0  0
    7.7750    1.7856    2.6231 C   0  0  0  0  0  0  0  0  0  0  0  0
    5.7825    3.1487    3.7426 C   0  0  0  0  0  0  0  0  0  0  0  0
    2.0753   -1.1607    0.8118 N   0  0  0  0  0  0  0  0  0  0  0  0
    9.0724   -3.0223    0.8069 C   0  0  0  0  0  0  0  0  0  0  0  0
  1  5  1  0
  1 13  1  0
  2 14  1  0
  2 18  2  0
  3 14  2  0
  3 22  1  0
  4 13  1  0
  4 25  1  0
  5 22  1  0
  6 17  2  0
  7 26  1  0
  8 12  2  0
  8 14  1  0
  8 27  1  0
  9 12  1  0
  9 18  1  0
  9 19  2  0
 10 16  1  0
 10 21  1  0
 11 25  1  0
 11 26  1  0
 13 15  1  0
 15 28  1  0
 17 20  1  0
 17 25  1  0
 21 22  1  0
 21 27  1  0
 23 26  1  0
 24 26  1  0
M  END
$$$$
