
     RDKit          3D

 21 25  0  0  0  0  0  0  0  0999 V2000
   11.8729   34.9585   16.0798 C   0  0  0  0  0  0  0  0  0  0  0  0
    9.8029   33.8098   17.3916 O   0  0  0  0  0  0  0  0  0  0  0  0
   12.1269   33.8100   15.2688 C   0  0  0  0  0  0  0  0  0  0  0  0
   14.6909   34.4760   12.5022 N   0  0  0  0  0  0  0  0  0  0  0  0
   12.5156   36.1902   16.0445 C   0  0  0  0  0  0  0  0  0  0  0  0
   10.6615   36.2698   17.6325 C   0  0  0  0  0  0  0  0  0  0  0  0
    9.9249   31.6215   16.9844 O   0  0  0  0  0  0  0  0  0  0  0  0
   13.1058   32.1841   13.9352 N   0  0  0  0  0  0  0  0  0  0  0  0
   13.1146   33.5909   14.2906 C   0  0  0  0  0  0  0  0  0  0  0  0
   14.5306   35.8537   14.3465 C   0  0  0  0  0  0  0  0  0  0  0  0
   13.6792   36.7234   15.1724 N   0  0  0  0  0  0  0  0  0  0  0  0
   14.2175   33.7444   11.3057 C   0  0  0  0  0  0  0  0  0  0  0  0
   15.7451   35.5161   12.3945 C   0  0  0  0  0  0  0  0  0  0  0  0
   10.7125   34.9240   16.9782 C   0  0  0  0  0  0  0  0  0  0  0  0
   11.8557   37.1252   16.9975 C   0  0  0  0  0  0  0  0  0  0  0  0
   14.1470   34.5968   13.7298 C   0  0  0  0  0  0  0  0  0  0  0  0
   12.1184   31.5948   14.6643 C   0  0  0  0  0  0  0  0  0  0  0  0
   15.8280   36.0778   13.7241 C   0  0  0  0  0  0  0  0  0  0  0  0
   13.4934   37.8872   15.1132 O   0  0  0  0  0  0  0  0  0  0  0  0
   11.4398   32.6364   15.5114 N   0  0  0  0  0  0  0  0  0  0  0  0
   10.3465   32.6042   16.6523 C   0  0  0  0  0  0  0  0  0  0  0  0
  1  3  1  0
  1  5  2  0
  1 14  1  0
  2 14  1  0
  2 21  1  0
  3  9  2  0
  3 20  1  0
  4 12  1  0
  4 13  1  0
  4 16  1  0
  5 11  1  0
  5 15  1  0
  6 14  1  0
  6 15  1  0
  7 21  2  0
  8  9  1  0
  8 17  1  0
  9 16  1  0
 10 11  1  0
 10 16  1  0
 10 18  1  0
 11 19  1  0
 13 18  1  0
 17 20  1  0
 20 21  1  0
M  END
$$$$
