
     RDKit          3D

 15 15  0  0  0  0  0  0  0  0999 V2000
   12.6670   35.8343   17.4646 O   0  0  0  0  0  0  0  0  0  0  0  0
   15.3957   34.7738   11.6383 C   0  0  0  0  0  0  0  0  0  0  0  0
   12.5267   35.7235   16.1595 C   0  0  0  0  0  0  0  0  0  0  0  0
   10.0602   31.9830   16.9440 N   0  0  0  0  0  0  0  0  0  0  0  0
   15.3109   33.2742   12.1271 C   0  0  0  0  0  0  0  0  0  0  0  0
   10.7755   33.1674   17.2207 N   0  0  0  0  0  0  0  0  0  0  0  0
   12.7583   36.7571   15.4951 O   0  0  0  0  0  0  0  0  0  0  0  0
   13.1402   34.2005   14.2938 C   0  0  0  0  0  0  0  0  0  0  0  0
   15.4569   33.0788   13.7338 C   0  0  0  0  0  0  0  0  0  0  0  0
   14.0308   32.9401   14.3571 C   0  0  0  0  0  0  0  0  0  0  0  0
   11.6405   33.2306   16.0834 C   0  0  0  0  0  0  0  0  0  0  0  0
   13.9746   35.3832   13.5204 C   0  0  0  0  0  0  0  0  0  0  0  0
   11.4629   32.0444   15.5830 N   0  0  0  0  0  0  0  0  0  0  0  0
   12.3215   34.3808   15.5536 C   0  0  0  0  0  0  0  0  0  0  0  0
   15.4271   35.5752   12.9673 C   0  0  0  0  0  0  0  0  0  0  0  0
  1  3  2  0
  2  5  1  0
  2 15  1  0
  3  7  1  0
  3 14  1  0
  4  6  1  0
  5  9  1  0
  6 11  1  0
  8 10  1  0
  8 12  1  0
  8 14  1  0
  9 10  1  0
 11 13  2  0
 11 14  1  0
 12 15  1  0
M  END
$$$$
