
     RDKit          3D

 13 13  0  0  0  0  0  0  0  0999 V2000
   15.6618   35.3977   11.8314 C   0  0  0  0  0  0  0  0  0  0  0  0
   14.4525   35.7898   13.9511 N   0  0  0  0  0  0  0  0  0  0  0  0
   14.2871   35.4338   12.4641 C   0  0  0  0  0  0  0  0  0  0  0  0
   10.2472   32.2058   16.9653 C   0  0  0  0  0  0  0  0  0  0  0  0
   12.1952   35.7290   15.6576 O   0  0  0  0  0  0  0  0  0  0  0  0
   11.3082   32.1297   16.0779 C   0  0  0  0  0  0  0  0  0  0  0  0
   16.5448   36.2682   12.5354 C   0  0  0  0  0  0  0  0  0  0  0  0
   13.5153   35.8518   15.0501 C   0  0  0  0  0  0  0  0  0  0  0  0
   10.5311   34.6262   17.0917 C   0  0  0  0  0  0  0  0  0  0  0  0
   15.2054   34.0886   12.4153 C   0  0  0  0  0  0  0  0  0  0  0  0
    9.8838   33.4707   17.5464 N   0  0  0  0  0  0  0  0  0  0  0  0
   11.5951   34.5284   16.1790 C   0  0  0  0  0  0  0  0  0  0  0  0
   11.9692   33.3130   15.6506 C   0  0  0  0  0  0  0  0  0  0  0  0
  1  3  1  0
  1  7  1  0
  1 10  1  0
  2  3  1  0
  2  8  2  3
  4  6  2  0
  4 11  1  0
  5  8  1  0
  5 12  1  0
  6 13  1  0
  9 11  2  0
  9 12  1  0
 12 13  2  0
M  END
$$$$
