
     RDKit          3D

 12 13  0  0  0  0  0  0  0  0999 V2000
   13.9146   35.2552   13.9253 C   0  0  0  0  0  0  0  0  0  0  0  0
   12.7442   33.5091   15.4641 C   0  0  0  0  0  0  0  0  0  0  0  0
   14.1136   35.3554   12.5726 O   0  0  0  0  0  0  0  0  0  0  0  0
   11.2332   34.8101   16.5748 O   0  0  0  0  0  0  0  0  0  0  0  0
   10.8527   33.4700   17.0373 C   0  0  0  0  0  0  0  0  0  0  0  0
   12.9082   35.8322   14.8275 C   0  0  0  0  0  0  0  0  0  0  0  0
   11.7892   32.6083   16.2984 C   0  0  0  0  0  0  0  0  0  0  0  0
   15.2159   34.5276   12.0755 C   0  0  0  0  0  0  0  0  0  0  0  0
    9.9632   33.1466   17.8776 O   0  0  0  0  0  0  0  0  0  0  0  0
   14.1157   33.6612   14.3701 S   0  0  0  0  0  0  0  0  0  0  0  0
   12.3040   34.7964   15.5971 C   0  0  0  0  0  0  0  0  0  0  0  0
   15.4271   33.5782   13.2747 C   0  0  0  0  0  0  0  0  0  0  0  0
  1  3  1  0
  1  6  1  0
  1 10  1  0
  2  7  1  0
  2 11  1  0
  3  8  1  0
  4  5  1  0
  4 11  1  0
  5  7  1  0
  5  9  2  0
  6 11  1  0
  8 12  1  0
 10 12  1  0
M  END
$$$$
