
     RDKit          3D

 27 31  0  0  0  0  0  0  0  0999 V2000
   12.3336   34.6071   15.5971 C   0  0  0  0  0  0  0  0  0  0  0  0
   17.4589   33.3766   12.4770 C   0  0  0  0  0  0  0  0  0  0  0  0
   17.2932   32.0556   11.6717 C   0  0  0  0  0  0  0  0  0  0  0  0
   11.5526   31.0381   15.6693 C   0  0  0  0  0  0  0  0  0  0  0  0
   12.3231   35.8927   16.4267 C   0  0  0  0  0  0  0  0  0  0  0  0
   13.5213   35.0095   12.9741 N   0  0  0  0  0  0  0  0  0  0  0  0
   13.2724   36.2073   17.8207 C   0  0  0  0  0  0  0  0  0  0  0  0
   11.5783   33.4402   15.7727 C   0  0  0  0  0  0  0  0  0  0  0  0
   11.0050   36.9450   17.9938 C   0  0  0  0  0  0  0  0  0  0  0  0
   14.3418   35.3822   11.9504 C   0  0  0  0  0  0  0  0  0  0  0  0
   15.4803   32.1553   14.6440 C   0  0  0  0  0  0  0  0  0  0  0  0
    9.9036   32.1693   16.8714 N   0  0  0  0  0  0  0  0  0  0  0  0
   10.3959   33.4697   16.6323 C   0  0  0  0  0  0  0  0  0  0  0  0
   15.1604   33.3673   13.6766 C   0  0  0  0  0  0  0  0  0  0  0  0
   10.0648   34.7613   17.2242 C   0  0  0  0  0  0  0  0  0  0  0  0
   10.5531   31.1930   16.4481 N   0  0  0  0  0  0  0  0  0  0  0  0
   17.8874   34.6362   11.7533 C   0  0  0  0  0  0  0  0  0  0  0  0
   12.3536   37.2060   18.5799 C   0  0  0  0  0  0  0  0  0  0  0  0
   13.8463   35.8748   11.2076 N   0  0  0  0  0  0  0  0  0  0  0  0
   10.9594   35.8439   17.1567 C   0  0  0  0  0  0  0  0  0  0  0  0
   13.3833   34.2284   15.0751 N   0  0  0  0  0  0  0  0  0  0  0  0
   12.0846   32.1877   15.4397 C   0  0  0  0  0  0  0  0  0  0  0  0
   12.7368   36.9033   15.6428 N   0  0  0  0  0  0  0  0  0  0  0  0
   13.9986   34.1142   13.9010 C   0  0  0  0  0  0  0  0  0  0  0  0
   16.7644   35.6257   11.3545 C   0  0  0  0  0  0  0  0  0  0  0  0
   16.0209   33.8181   12.7451 C   0  0  0  0  0  0  0  0  0  0  0  0
   15.6726   34.9496   12.0045 N   0  0  0  0  0  0  0  0  0  0  0  0
  1  5  1  0
  1  8  1  0
  1 21  1  0
  2  3  1  0
  2 17  1  0
  2 26  1  0
  4 16  1  0
  4 22  1  0
  5  7  1  0
  5 20  1  0
  5 23  1  0
  6 10  1  0
  6 24  2  0
  7 18  1  0
  8 13  1  0
  8 22  2  0
  9 18  1  0
  9 20  1  0
 10 19  2  0
 10 27  1  0
 11 14  1  0
 12 13  2  0
 12 16  1  0
 13 15  1  0
 14 24  1  0
 14 26  2  0
 15 20  1  0
 17 25  1  0
 21 24  1  0
 25 27  1  0
 26 27  1  0
M  END
$$$$
