
     RDKit          3D

  9  9  0  0  0  0  0  0  0  0999 V2000
   13.3283   35.4254   12.4835 N   0  0  0  0  0  0  0  0  0  0  0  0
   12.9193   36.0105   14.7888 C   0  0  0  0  0  0  0  0  0  0  0  0
   13.2694   35.0200   13.8271 C   0  0  0  0  0  0  0  0  0  0  0  0
   12.2941   34.7957   16.9273 C   0  0  0  0  0  0  0  0  0  0  0  0
   13.6315   33.7370   14.3939 C   0  0  0  0  0  0  0  0  0  0  0  0
   13.0571   35.6702   16.1744 C   0  0  0  0  0  0  0  0  0  0  0  0
   10.9465   32.5665   17.3097 C   0  0  0  0  0  0  0  0  0  0  0  0
   12.9210   33.0229   15.3955 N   0  0  0  0  0  0  0  0  0  0  0  0
   12.1115   33.4433   16.4778 C   0  0  0  0  0  0  0  0  0  0  0  0
  1  3  1  0
  2  3  2  0
  2  6  1  0
  3  5  1  0
  4  6  1  0
  4  9  2  0
  5  8  1  0
  7  9  1  0
  8  9  1  0
M  END
$$$$
