
     RDKit          3D

 36 39  0  0  0  0  0  0  0  0999 V2000
  102.4807    1.8526  -92.2765 O   0  0  0  0  0  0  0  0  0  0  0  0
  103.3673    2.8947  -92.6543 C   0  0  0  0  0  0  0  0  0  0  0  0
  105.0368    1.3346  -94.1999 O   0  0  0  0  0  0  0  0  0  0  0  0
  105.0120    2.2024  -92.8770 P   0  0  0  0  0  0  0  0  0  0  0  0
  102.3217    5.6184  -92.4764 C   0  0  0  0  0  0  0  0  0  0  0  0
  103.8205    4.6873  -90.7878 C   0  0  0  0  0  0  0  0  0  0  0  0
  102.3191    5.3955  -87.8188 C   0  0  0  0  0  0  0  0  0  0  0  0
  100.9033    3.5869  -88.1056 O   0  0  0  0  0  0  0  0  0  0  0  0
  102.4657    6.5396  -91.3627 N   0  0  0  0  0  0  0  0  0  0  0  0
  105.1437    4.3921  -90.5888 O   0  0  0  0  0  0  0  0  0  0  0  0
  103.4766    6.0607  -90.3985 C   0  0  0  0  0  0  0  0  0  0  0  0
   99.5906   10.6809  -91.4320 C   0  0  0  0  0  0  0  0  0  0  0  0
  100.6856    8.5320  -91.0613 C   0  0  0  0  0  0  0  0  0  0  0  0
  101.0242    4.8145  -88.0948 C   0  0  0  0  0  0  0  0  0  0  0  0
  101.5297    4.0857  -93.8274 C   0  0  0  0  0  0  0  0  0  0  0  0
   98.3087    8.7284  -90.8523 C   0  0  0  0  0  0  0  0  0  0  0  0
   99.1145    6.4450  -90.5829 C   0  0  0  0  0  0  0  0  0  0  0  0
  106.2447    3.1356  -92.9151 O   0  0  0  0  0  0  0  0  0  0  0  0
   99.0121    5.6923  -89.3390 C   0  0  0  0  0  0  0  0  0  0  0  0
   97.8493    4.8863  -89.2040 C   0  0  0  0  0  0  0  0  0  0  0  0
  101.0086    5.6053  -93.2481 C   0  0  0  0  0  0  0  0  0  0  0  0
   98.6666    5.5995  -91.6659 C   0  0  0  0  0  0  0  0  0  0  0  0
  104.5521    6.8901  -89.7439 C   0  0  0  0  0  0  0  0  0  0  0  0
  105.3163    1.1557  -91.6942 O   0  0  0  0  0  0  0  0  0  0  0  0
  100.5626    3.1617  -93.7859 O   0  0  0  0  0  0  0  0  0  0  0  0
   99.4298    7.8637  -90.7620 C   0  0  0  0  0  0  0  0  0  0  0  0
   99.5738    5.4244  -92.8397 N   0  0  0  0  0  0  0  0  0  0  0  0
   99.9575    5.6602  -88.3503 N   0  0  0  0  0  0  0  0  0  0  0  0
  105.5494    7.4588  -90.5070 O   0  0  0  0  0  0  0  0  0  0  0  0
   97.5359    4.7861  -91.5689 C   0  0  0  0  0  0  0  0  0  0  0  0
   97.0317    4.4740  -90.2695 C   0  0  0  0  0  0  0  0  0  0  0  0
  103.0426    8.6454  -90.9355 O   0  0  0  0  0  0  0  0  0  0  0  0
  100.7083    9.8701  -91.4315 C   0  0  0  0  0  0  0  0  0  0  0  0
  102.0574    7.8614  -91.0692 C   0  0  0  0  0  0  0  0  0  0  0  0
   98.3539   10.0756  -91.1432 C   0  0  0  0  0  0  0  0  0  0  0  0
  102.7129    4.2018  -92.9585 N   0  0  0  0  0  0  0  0  0  0  0  0
  1  2  2  0
  2  4  1  0
  2 36  1  0
  3  4  1  0
  4 18  1  0
  4 24  1  0
  5  9  1  0
  5 21  1  0
  5 36  1  0
  6 10  1  0
  6 11  1  0
  7 14  1  0
  8 14  2  0
  9 11  1  0
  9 34  1  0
 11 23  1  0
 12 33  1  0
 12 35  2  0
 13 26  1  0
 13 33  2  0
 13 34  1  0
 14 28  1  0
 15 21  1  0
 15 25  1  0
 15 36  1  0
 16 26  2  0
 16 35  1  0
 17 19  1  0
 17 22  1  0
 17 26  1  0
 19 20  1  0
 19 28  1  0
 20 31  1  0
 21 27  1  0
 22 27  1  0
 22 30  1  0
 23 29  1  0
 30 31  1  0
 32 34  2  0
M  END
$$$$
