
     RDKit          3D

 33 37  0  0  0  0  0  0  0  0999 V2000
  101.0832    3.0171  -93.7011 C   0  0  0  0  0  0  0  0  0  0  0  0
  101.0395    4.2378  -92.8190 C   0  0  0  0  0  0  0  0  0  0  0  0
  102.5810    5.3582  -91.2397 C   0  0  0  0  0  0  0  0  0  0  0  0
  100.0117    7.7091  -90.5179 C   0  0  0  0  0  0  0  0  0  0  0  0
   97.2927    7.4270  -89.6983 C   0  0  0  0  0  0  0  0  0  0  0  0
   98.3572    4.0538  -87.1184 O   0  0  0  0  0  0  0  0  0  0  0  0
  104.8909    7.5451  -90.5808 C   0  0  0  0  0  0  0  0  0  0  0  0
  103.0920    1.6629  -94.5506 C   0  0  0  0  0  0  0  0  0  0  0  0
  103.1871    3.1752  -92.7092 C   0  0  0  0  0  0  0  0  0  0  0  0
  104.0018    5.2098  -90.3934 C   0  0  0  0  0  0  0  0  0  0  0  0
  105.1602    3.0024  -91.3547 O   0  0  0  0  0  0  0  0  0  0  0  0
   98.2472    6.4708  -89.4621 C   0  0  0  0  0  0  0  0  0  0  0  0
  105.1479    1.8255  -93.2925 C   0  0  0  0  0  0  0  0  0  0  0  0
  105.6242    8.3996  -91.5271 C   0  0  0  0  0  0  0  0  0  0  0  0
  105.4619   10.4548  -92.6263 O   0  0  0  0  0  0  0  0  0  0  0  0
  103.5252    5.8686  -88.0475 O   0  0  0  0  0  0  0  0  0  0  0  0
  102.3676    4.2021  -92.1249 C   0  0  0  0  0  0  0  0  0  0  0  0
  100.5686    5.4708  -89.5196 C   0  0  0  0  0  0  0  0  0  0  0  0
  104.4143    1.2784  -94.3449 C   0  0  0  0  0  0  0  0  0  0  0  0
   99.0916    8.7223  -90.7836 C   0  0  0  0  0  0  0  0  0  0  0  0
  101.9423    5.6466  -89.8125 C   0  0  0  0  0  0  0  0  0  0  0  0
  104.8465    9.6483  -91.8201 C   0  0  0  0  0  0  0  0  0  0  0  0
   99.5729    6.5727  -89.8397 C   0  0  0  0  0  0  0  0  0  0  0  0
   97.7513    8.5761  -90.3833 C   0  0  0  0  0  0  0  0  0  0  0  0
   99.9921    4.4147  -88.6759 N   0  0  0  0  0  0  0  0  0  0  0  0
  102.4907    2.5654  -93.7009 C   0  0  0  0  0  0  0  0  0  0  0  0
   99.7788    3.8420  -87.3274 C   0  0  0  0  0  0  0  0  0  0  0  0
  103.2552    5.7831  -89.1872 C   0  0  0  0  0  0  0  0  0  0  0  0
   98.8270    3.8475  -89.3732 C   0  0  0  0  0  0  0  0  0  0  0  0
  104.5034    2.7163  -92.4260 C   0  0  0  0  0  0  0  0  0  0  0  0
   97.6669    3.9894  -88.3959 C   0  0  0  0  0  0  0  0  0  0  0  0
  103.6733    9.7084  -91.3682 O   0  0  0  0  0  0  0  0  0  0  0  0
  104.8554    6.2019  -91.1395 C   0  0  0  0  0  0  0  0  0  0  0  0
  1  2  1  0
  1 26  1  0
  2 17  1  0
  3 10  1  0
  3 17  1  0
  3 21  1  0
  4 20  2  0
  4 23  1  0
  5 12  1  0
  5 24  2  0
  6 27  1  0
  6 31  1  0
  7 14  1  0
  7 33  1  0
  8 19  1  0
  8 26  2  0
  9 17  1  0
  9 26  1  0
  9 30  2  0
 10 28  1  0
 10 33  1  0
 11 30  1  0
 12 23  2  0
 13 19  2  0
 13 30  1  0
 14 22  1  0
 15 22  2  0
 16 28  2  0
 18 21  1  0
 18 23  1  0
 18 25  1  0
 20 24  1  0
 21 28  1  0
 22 32  1  0
 25 27  1  0
 25 29  1  0
 29 31  1  0
M  END
$$$$
