
     RDKit          3D

 20 19  0  0  0  0  0  0  0  0999 V2000
   98.6959    9.1733  -91.1821 C   0  0  0  0  0  0  0  0  0  0  0  0
  101.4677    6.1641  -91.2352 C   0  0  0  0  0  0  0  0  0  0  0  0
   99.7087    4.7562  -92.9048 O   0  0  0  0  0  0  0  0  0  0  0  0
  105.3019    5.7887  -91.1698 N   0  0  0  0  0  0  0  0  0  0  0  0
  106.2188    3.6433  -90.7182 O   0  0  0  0  0  0  0  0  0  0  0  0
   98.5450    4.4672  -89.2458 C   0  0  0  0  0  0  0  0  0  0  0  0
  106.2159    4.6947  -91.4318 C   0  0  0  0  0  0  0  0  0  0  0  0
  100.1185    8.7126  -90.9283 C   0  0  0  0  0  0  0  0  0  0  0  0
   99.6268    4.2078  -91.5882 C   0  0  0  0  0  0  0  0  0  0  0  0
   98.9697    5.1275  -90.5548 C   0  0  0  0  0  0  0  0  0  0  0  0
  101.1009    9.6074  -90.7806 O   0  0  0  0  0  0  0  0  0  0  0  0
  100.4078    7.2362  -90.8795 C   0  0  0  0  0  0  0  0  0  0  0  0
  102.3117    9.4060  -91.5088 C   0  0  0  0  0  0  0  0  0  0  0  0
  107.0727    4.7827  -92.3624 O   0  0  0  0  0  0  0  0  0  0  0  0
   99.6854    3.7283  -88.7252 O   0  0  0  0  0  0  0  0  0  0  0  0
  105.8464    7.1667  -91.3521 C   0  0  0  0  0  0  0  0  0  0  0  0
  102.9292    6.5146  -91.1068 N   0  0  0  0  0  0  0  0  0  0  0  0
   99.1468    6.5276  -90.4893 N   0  0  0  0  0  0  0  0  0  0  0  0
  103.9329    5.6167  -91.5078 C   0  0  0  0  0  0  0  0  0  0  0  0
  103.6128    4.7469  -92.4456 O   0  0  0  0  0  0  0  0  0  0  0  0
  1  8  1  0
  2 12  1  0
  2 17  2  3
  3  9  1  0
  4  7  1  0
  4 16  1  0
  4 19  1  0
  5  7  2  0
  6 10  1  0
  6 15  1  0
  7 14  1  0
  8 11  1  0
  8 12  1  0
  9 10  1  0
 10 18  1  0
 11 13  1  0
 12 18  2  3
 17 19  1  0
 19 20  2  0
M  END
$$$$
