
     RDKit          3D

 30 31  0  0  0  0  0  0  0  0999 V2000
    2.6631   -7.1249   15.0540 C   0  0  0  0  0  0  0  0  0  0  0  0
    2.5945   -9.4142   15.9249 C   0  0  0  0  0  0  0  0  0  0  0  0
    1.6379   -7.6060   17.2433 C   0  0  0  0  0  0  0  0  0  0  0  0
   -0.0312   -9.7605   18.6623 N   0  0  0  0  0  0  0  0  0  0  0  0
    0.9863  -12.5943   14.1656 O   0  0  0  0  0  0  0  0  0  0  0  0
   -0.1486  -12.1058   17.5959 O   0  0  0  0  0  0  0  0  0  0  0  0
    2.8545  -12.0556   15.5808 C   0  0  0  0  0  0  0  0  0  0  0  0
    2.2464  -12.2148   14.1900 C   0  0  0  0  0  0  0  0  0  0  0  0
    3.8797   -8.9998   21.1801 C   0  0  0  0  0  0  0  0  0  0  0  0
    6.2849  -11.5844   19.2384 C   0  0  0  0  0  0  0  0  0  0  0  0
    2.8519   -8.5231   14.8228 C   0  0  0  0  0  0  0  0  0  0  0  0
    2.5108  -10.9939   11.2379 N   0  0  0  0  0  0  0  0  0  0  0  0
    6.2266  -11.0396   17.7768 C   0  0  0  0  0  0  0  0  0  0  0  0
    5.2828  -11.1408   21.3885 O   0  0  0  0  0  0  0  0  0  0  0  0
    6.1249  -12.0230   20.7136 C   0  0  0  0  0  0  0  0  0  0  0  0
    5.1341   -9.7684   20.9178 C   0  0  0  0  0  0  0  0  0  0  0  0
    1.0344  -10.0152   17.8004 C   0  0  0  0  0  0  0  0  0  0  0  0
    6.1150  -12.0128   16.6116 C   0  0  0  0  0  0  0  0  0  0  0  0
    1.9184  -12.4376   16.6191 O   0  0  0  0  0  0  0  0  0  0  0  0
    3.3453  -10.7124   15.9102 C   0  0  0  0  0  0  0  0  0  0  0  0
    4.9308  -12.9079   16.7849 C   0  0  0  0  0  0  0  0  0  0  0  0
    3.9843  -13.1252   15.5710 C   0  0  0  0  0  0  0  0  0  0  0  0
    4.5165  -10.7158   12.0613 O   0  0  0  0  0  0  0  0  0  0  0  0
    6.6679  -12.0885   15.3200 O   0  0  0  0  0  0  0  0  0  0  0  0
    1.0825  -11.4562   17.3232 C   0  0  0  0  0  0  0  0  0  0  0  0
    3.4343  -11.2267   12.1162 C   0  0  0  0  0  0  0  0  0  0  0  0
    2.0817   -6.6745   16.2601 C   0  0  0  0  0  0  0  0  0  0  0  0
    3.1526  -12.2137   13.0861 C   0  0  0  0  0  0  0  0  0  0  0  0
    1.7590   -9.0054   16.9916 C   0  0  0  0  0  0  0  0  0  0  0  0
    6.2039  -13.3410   21.0258 O   0  0  0  0  0  0  0  0  0  0  0  0
  1 11  1  0
  1 27  2  0
  2 11  1  0
  2 20  1  0
  2 29  1  0
  3 27  1  0
  3 29  1  0
  4 17  1  0
  5  8  1  0
  6 25  2  0
  7  8  1  0
  7 19  1  0
  7 20  1  0
  7 22  1  0
  8 28  1  0
  9 16  1  0
 10 13  2  3
 10 15  1  0
 12 26  1  0
 13 18  1  0
 14 15  1  0
 14 16  1  0
 15 30  2  0
 17 25  1  0
 17 29  2  0
 18 21  1  0
 18 24  1  0
 19 25  1  0
 21 22  1  0
 23 26  2  0
 26 28  1  0
M  END
$$$$
