
     RDKit          3D

 31 32  0  0  0  0  0  0  0  0999 V2000
    4.0433  -14.0728   12.3564 C   0  0  0  0  0  0  0  0  0  0  0  0
    3.4792  -13.3030   14.5649 C   0  0  0  0  0  0  0  0  0  0  0  0
    5.4313  -11.2205   17.6417 C   0  0  0  0  0  0  0  0  0  0  0  0
    3.1126   -8.6409   19.2136 C   0  0  0  0  0  0  0  0  0  0  0  0
    5.9120  -10.7081   19.9266 C   0  0  0  0  0  0  0  0  0  0  0  0
    3.9500  -10.9733   15.2559 C   0  0  0  0  0  0  0  0  0  0  0  0
    4.8139  -10.9625   16.3402 C   0  0  0  0  0  0  0  0  0  0  0  0
    6.3408  -11.7351   22.5117 O   0  0  0  0  0  0  0  0  0  0  0  0
    6.1845  -12.9332   19.1455 C   0  0  0  0  0  0  0  0  0  0  0  0
    6.1578  -12.0357   20.2078 C   0  0  0  0  0  0  0  0  0  0  0  0
    4.2423  -12.7251   11.9698 C   0  0  0  0  0  0  0  0  0  0  0  0
    0.9237  -10.8936   17.8752 N   0  0  0  0  0  0  0  0  0  0  0  0
    3.6928  -14.3521   13.6967 C   0  0  0  0  0  0  0  0  0  0  0  0
    5.5829  -10.2840   18.6490 C   0  0  0  0  0  0  0  0  0  0  0  0
    3.3384   -7.7193   14.1396 C   0  0  0  0  0  0  0  0  0  0  0  0
    6.4887  -13.7744   21.7481 O   0  0  0  0  0  0  0  0  0  0  0  0
    3.8678  -12.0039   14.2366 C   0  0  0  0  0  0  0  0  0  0  0  0
    4.0724   -8.0077   13.1602 O   0  0  0  0  0  0  0  0  0  0  0  0
    0.7608  -10.3483   15.5317 C   0  0  0  0  0  0  0  0  0  0  0  0
    3.3405   -8.6011   15.2246 N   0  0  0  0  0  0  0  0  0  0  0  0
    2.8147  -13.4989   15.8118 C   0  0  0  0  0  0  0  0  0  0  0  0
    1.4241  -11.3310   16.5630 C   0  0  0  0  0  0  0  0  0  0  0  0
    2.7055   -6.6788   17.7845 C   0  0  0  0  0  0  0  0  0  0  0  0
    2.0747  -12.5573   16.5107 C   0  0  0  0  0  0  0  0  0  0  0  0
    2.7075   -6.5989   14.1520 O   0  0  0  0  0  0  0  0  0  0  0  0
    4.1821  -11.7201   12.9247 C   0  0  0  0  0  0  0  0  0  0  0  0
    3.2010   -9.8842   14.9438 C   0  0  0  0  0  0  0  0  0  0  0  0
    6.3807  -12.5480   21.6159 C   0  0  0  0  0  0  0  0  0  0  0  0
    3.3595   -8.0692   17.7053 C   0  0  0  0  0  0  0  0  0  0  0  0
    3.9665   -8.3703   16.4651 O   0  0  0  0  0  0  0  0  0  0  0  0
    5.8369  -12.5185   17.8822 C   0  0  0  0  0  0  0  0  0  0  0  0
  1 11  2  0
  1 13  1  0
  2 13  2  0
  2 17  1  0
  2 21  1  0
  3  7  2  0
  3 14  1  0
  3 31  1  0
  4 29  1  0
  5 10  2  0
  5 14  1  0
  6  7  2  0
  6 17  1  0
  6 27  1  0
  8 28  2  0
  9 10  1  0
  9 31  2  0
 10 28  1  0
 11 26  1  0
 12 22  1  0
 15 18  2  0
 15 20  1  0
 15 25  1  0
 16 28  1  0
 17 26  2  0
 19 22  1  0
 20 27  1  0
 20 30  1  0
 21 24  2  3
 22 24  1  0
 23 29  1  0
 29 30  1  0
M  END
$$$$
