
     RDKit          3D

 30 32  0  0  0  0  0  0  0  0999 V2000
    2.6071   -7.7256   14.5890 C   0  0  0  0  0  0  0  0  0  0  0  0
    1.7647  -12.5077   15.6489 C   0  0  0  0  0  0  0  0  0  0  0  0
    0.2689  -10.4944   19.3179 C   0  0  0  0  0  0  0  0  0  0  0  0
    1.8234  -10.7564   11.2798 N   0  0  0  0  0  0  0  0  0  0  0  0
    6.0226  -10.6811   19.2472 C   0  0  0  0  0  0  0  0  0  0  0  0
    2.4994   -7.6779   18.1949 C   0  0  0  0  0  0  0  0  0  0  0  0
    2.8023   -7.1281   15.8096 O   0  0  0  0  0  0  0  0  0  0  0  0
    0.1155   -9.8316   17.9985 C   0  0  0  0  0  0  0  0  0  0  0  0
    1.0958  -11.6348   16.6762 C   0  0  0  0  0  0  0  0  0  0  0  0
    2.9681   -7.1318   13.5285 O   0  0  0  0  0  0  0  0  0  0  0  0
    3.4845  -12.8601   12.4876 C   0  0  0  0  0  0  0  0  0  0  0  0
    2.3121   -8.0263   16.7892 C   0  0  0  0  0  0  0  0  0  0  0  0
    6.2387  -11.8645   20.0235 C   0  0  0  0  0  0  0  0  0  0  0  0
   -0.2144  -11.6545   19.5627 O   0  0  0  0  0  0  0  0  0  0  0  0
    5.6767  -10.7442   17.9172 C   0  0  0  0  0  0  0  0  0  0  0  0
    1.6989   -9.1058   16.1716 C   0  0  0  0  0  0  0  0  0  0  0  0
    5.0842  -12.0918   15.9302 C   0  0  0  0  0  0  0  0  0  0  0  0
    1.8032  -10.8792   12.6851 C   0  0  0  0  0  0  0  0  0  0  0  0
    2.8660  -12.1041   14.7401 N   0  0  0  0  0  0  0  0  0  0  0  0
    1.5205   -9.7453   13.5053 C   0  0  0  0  0  0  0  0  0  0  0  0
    1.0075  -10.1791   16.9150 C   0  0  0  0  0  0  0  0  0  0  0  0
    0.9961   -9.6982   20.3526 C   0  0  0  0  0  0  0  0  0  0  0  0
    5.8860  -13.1245   19.5060 C   0  0  0  0  0  0  0  0  0  0  0  0
    1.9314   -8.9364   14.7622 N   0  0  0  0  0  0  0  0  0  0  0  0
    4.0626  -12.8080   15.1613 C   0  0  0  0  0  0  0  0  0  0  0  0
    5.4157  -12.0266   17.3854 C   0  0  0  0  0  0  0  0  0  0  0  0
    4.0807  -12.3256   11.2867 C   0  0  0  0  0  0  0  0  0  0  0  0
    5.4511  -13.1921   18.1918 C   0  0  0  0  0  0  0  0  0  0  0  0
    3.7168  -14.0970   12.8493 O   0  0  0  0  0  0  0  0  0  0  0  0
    2.5133  -12.0625   13.3146 C   0  0  0  0  0  0  0  0  0  0  0  0
  1  7  1  0
  1 10  2  0
  1 24  1  0
  2  9  1  0
  2 19  1  0
  3  8  1  0
  3 14  2  0
  3 22  1  0
  4 18  1  0
  5 13  1  0
  5 15  2  0
  6 12  1  0
  7 12  1  0
  8 21  1  0
  9 21  2  3
 11 27  1  0
 11 29  1  0
 11 30  1  0
 12 16  2  0
 13 23  1  0
 15 26  1  0
 16 21  1  0
 16 24  1  0
 17 25  1  0
 17 26  1  0
 18 20  1  0
 18 30  1  0
 19 25  1  0
 19 30  1  0
 20 24  1  0
 23 28  2  0
 26 28  1  0
M  END
$$$$
