
     RDKit          3D

 36 39  0  0  0  0  0  0  0  0999 V2000
    1.7381   -8.5632   15.3957 C   0  0  0  0  0  0  0  0  0  0  0  0
    2.2891  -12.8109   14.7433 C   0  0  0  0  0  0  0  0  0  0  0  0
    5.8219  -13.7959   12.9798 C   0  0  0  0  0  0  0  0  0  0  0  0
    1.3427   -8.9316   16.8192 C   0  0  0  0  0  0  0  0  0  0  0  0
    4.6453   -9.3843   21.0672 C   0  0  0  0  0  0  0  0  0  0  0  0
    2.3005   -6.7067   13.9882 O   0  0  0  0  0  0  0  0  0  0  0  0
    5.1310   -9.9974   22.0752 C   0  0  0  0  0  0  0  0  0  0  0  0
    1.9079   -9.6842   14.4494 C   0  0  0  0  0  0  0  0  0  0  0  0
    6.5999  -12.8343   12.3281 C   0  0  0  0  0  0  0  0  0  0  0  0
    6.6067  -13.2897   21.9202 N   0  0  0  0  0  0  0  0  0  0  0  0
    5.2907  -10.9728   16.7414 C   0  0  0  0  0  0  0  0  0  0  0  0
    4.8206  -10.0162   18.6810 C   0  0  0  0  0  0  0  0  0  0  0  0
    2.0331   -6.1269   15.3882 C   0  0  0  0  0  0  0  0  0  0  0  0
    1.2568  -12.3287   15.6030 N   0  0  0  0  0  0  0  0  0  0  0  0
    2.8840  -10.6264   14.5485 N   0  0  0  0  0  0  0  0  0  0  0  0
   -0.1361  -11.2070   18.8329 O   0  0  0  0  0  0  0  0  0  0  0  0
    0.3516  -11.1883   17.6525 C   0  0  0  0  0  0  0  0  0  0  0  0
    6.0346  -11.6381   11.8856 C   0  0  0  0  0  0  0  0  0  0  0  0
    5.8919  -11.7792   17.6773 C   0  0  0  0  0  0  0  0  0  0  0  0
    3.9700   -7.7925   15.0243 O   0  0  0  0  0  0  0  0  0  0  0  0
    2.6952  -11.8404   13.6447 C   0  0  0  0  0  0  0  0  0  0  0  0
    4.6458   -9.9113   17.3745 N   0  0  0  0  0  0  0  0  0  0  0  0
    0.3110   -9.9989   16.8952 O   0  0  0  0  0  0  0  0  0  0  0  0
    2.6482   -7.4133   15.0225 C   0  0  0  0  0  0  0  0  0  0  0  0
    3.9596  -12.2655   12.9489 C   0  0  0  0  0  0  0  0  0  0  0  0
    0.8859  -12.3627   16.9813 C   0  0  0  0  0  0  0  0  0  0  0  0
    6.0880  -11.7202   20.1381 C   0  0  0  0  0  0  0  0  0  0  0  0
    4.6875  -11.3756   12.1579 C   0  0  0  0  0  0  0  0  0  0  0  0
    1.4559   -9.4869   13.2747 O   0  0  0  0  0  0  0  0  0  0  0  0
    3.6708  -14.5383   13.8360 O   0  0  0  0  0  0  0  0  0  0  0  0
    4.3728   -9.1847   19.7128 C   0  0  0  0  0  0  0  0  0  0  0  0
    6.1570  -12.0753   21.4718 C   0  0  0  0  0  0  0  0  0  0  0  0
    2.9370  -14.1066   14.9494 C   0  0  0  0  0  0  0  0  0  0  0  0
    5.7187  -11.1426   22.4390 N   0  0  0  0  0  0  0  0  0  0  0  0
    5.5974  -11.1612   18.9719 C   0  0  0  0  0  0  0  0  0  0  0  0
    4.4763  -13.5504   13.2210 C   0  0  0  0  0  0  0  0  0  0  0  0
  1  4  1  0
  1  8  1  0
  1 24  1  0
  2 14  1  0
  2 21  1  0
  2 33  1  0
  3  9  1  0
  3 36  2  0
  4 23  1  0
  5  7  2  0
  5 31  2  0
  6 24  1  0
  7 34  1  0
  8 15  1  0
  8 29  2  0
  9 18  1  0
 10 32  1  0
 11 19  1  0
 11 22  1  0
 12 22  1  0
 12 31  1  0
 12 35  1  0
 13 24  1  0
 14 26  1  0
 15 21  1  0
 16 17  2  0
 17 23  1  0
 17 26  1  0
 18 28  2  0
 19 35  1  0
 20 24  1  0
 21 25  1  0
 25 28  1  0
 25 36  1  0
 27 32  2  0
 27 35  2  0
 30 33  1  0
 30 36  1  0
 32 34  1  0
M  END
$$$$
