
     RDKit          3D

 25 27  0  0  0  0  0  0  0  0999 V2000
    5.6718   -0.8687    1.3169 C   0  0  0  0  0  0  0  0  0  0  0  0
    2.2432    0.4276    0.2517 C   0  0  0  0  0  0  0  0  0  0  0  0
    8.1022   -1.4230    1.0373 C   0  0  0  0  0  0  0  0  0  0  0  0
    3.3666    2.7207    1.3157 C   0  0  0  0  0  0  0  0  0  0  0  0
    1.7529   -0.5614    0.0242 O   0  0  0  0  0  0  0  0  0  0  0  0
    5.7912    3.3271    3.7990 P   0  0  0  0  0  0  0  0  0  0  0  0
    5.1032    4.3442    2.9330 O   0  0  0  0  0  0  0  0  0  0  0  0
    2.2896    2.7983    0.5157 C   0  0  0  0  0  0  0  0  0  0  0  0
    4.2890   -2.7598    2.7018 C   0  0  0  0  0  0  0  0  0  0  0  0
    7.5593    3.7153    3.9117 O   0  0  0  0  0  0  0  0  0  0  0  0
    3.5074   -2.0915    1.7172 C   0  0  0  0  0  0  0  0  0  0  0  0
   -0.5758    1.2842   -0.1574 O   0  0  0  0  0  0  0  0  0  0  0  0
    6.1127    0.2862    2.0354 C   0  0  0  0  0  0  0  0  0  0  0  0
    5.1362    1.3017    2.3359 C   0  0  0  0  0  0  0  0  0  0  0  0
    3.9628    1.4454    1.5296 C   0  0  0  0  0  0  0  0  0  0  0  0
    1.6345    1.7011    0.0677 N   0  0  0  0  0  0  0  0  0  0  0  0
    5.4856    1.9025    3.4837 O   0  0  0  0  0  0  0  0  0  0  0  0
    5.3738    3.4116    5.0539 O   0  0  0  0  0  0  0  0  0  0  0  0
    5.0117   -3.8846    2.4994 O   0  0  0  0  0  0  0  0  0  0  0  0
    4.2413   -0.9932    0.9489 C   0  0  0  0  0  0  0  0  0  0  0  0
    6.7663   -1.6440    1.0393 C   0  0  0  0  0  0  0  0  0  0  0  0
    8.5010   -0.1478    1.6152 C   0  0  0  0  0  0  0  0  0  0  0  0
    7.4840    0.6560    2.1286 C   0  0  0  0  0  0  0  0  0  0  0  0
    0.3887    1.8858   -0.5689 C   0  0  0  0  0  0  0  0  0  0  0  0
    3.4957    0.3038    0.8839 C   0  0  0  0  0  0  0  0  0  0  0  0
  1 13  2  0
  1 20  1  0
  1 21  1  0
  2  5  2  0
  2 16  1  0
  2 25  1  0
  3 21  1  0
  3 22  1  0
  4  8  2  0
  4 15  1  0
  6  7  1  0
  6 10  1  0
  6 17  1  0
  6 18  1  0
  8 16  1  0
  9 11  1  0
  9 19  1  0
 11 20  1  0
 12 24  2  0
 13 14  1  0
 13 23  1  0
 14 15  1  0
 14 17  1  0
 15 25  2  0
 16 24  1  0
 20 25  1  0
 22 23  2  0
M  END
$$$$
