
     RDKit          3D

 28 30  0  0  0  0  0  0  0  0999 V2000
    8.9872   -1.6116   -0.3802 C   0  0  0  0  0  0  0  0  0  0  0  0
    6.2381    3.0711    2.9269 C   0  0  0  0  0  0  0  0  0  0  0  0
    1.5449   -2.7509    1.9962 O   0  0  0  0  0  0  0  0  0  0  0  0
    4.5005   -1.1142    0.7723 C   0  0  0  0  0  0  0  0  0  0  0  0
    5.5468   -3.0198    2.7473 C   0  0  0  0  0  0  0  0  0  0  0  0
    3.5839    2.5600    1.4942 C   0  0  0  0  0  0  0  0  0  0  0  0
    5.0924    2.3652    2.3464 C   0  0  0  0  0  0  0  0  0  0  0  0
    9.0228   -0.6999    0.9080 C   0  0  0  0  0  0  0  0  0  0  0  0
    2.3600   -1.8426    1.3270 C   0  0  0  0  0  0  0  0  0  0  0  0
    6.8750   -2.0510    2.3874 C   0  0  0  0  0  0  0  0  0  0  0  0
    2.4717    2.6946    0.4129 C   0  0  0  0  0  0  0  0  0  0  0  0
    4.1336   -2.9909    2.4817 C   0  0  0  0  0  0  0  0  0  0  0  0
    7.2837    0.4817    2.2450 O   0  0  0  0  0  0  0  0  0  0  0  0
    9.2631    0.9727    0.8750 C   0  0  0  0  0  0  0  0  0  0  0  0
    0.5591    1.4103   -0.4081 C   0  0  0  0  0  0  0  0  0  0  0  0
    3.9979   -0.1101    0.0891 C   0  0  0  0  0  0  0  0  0  0  0  0
    8.3762    1.6740    2.2256 C   0  0  0  0  0  0  0  0  0  0  0  0
    3.7108   -1.9740    1.4582 N   0  0  0  0  0  0  0  0  0  0  0  0
    7.7279   -0.8477    1.6573 C   0  0  0  0  0  0  0  0  0  0  0  0
   -0.0132    2.7603   -0.5524 N   0  0  0  0  0  0  0  0  0  0  0  0
    1.9477   -0.8125    0.5808 C   0  0  0  0  0  0  0  0  0  0  0  0
    9.4222    2.2992    0.0468 O   0  0  0  0  0  0  0  0  0  0  0  0
    8.7172   -0.7001   -1.5599 O   0  0  0  0  0  0  0  0  0  0  0  0
    8.1895    3.2934    4.2547 O   0  0  0  0  0  0  0  0  0  0  0  0
    9.7129    2.5795    2.4842 O   0  0  0  0  0  0  0  0  0  0  0  0
    2.0746    1.4518   -0.4435 C   0  0  0  0  0  0  0  0  0  0  0  0
    7.5398    2.7106    3.2609 C   0  0  0  0  0  0  0  0  0  0  0  0
    2.7149    0.0976    0.0779 C   0  0  0  0  0  0  0  0  0  0  0  0
  1  8  1  0
  1 23  1  0
  2  7  1  0
  2 27  1  0
  3  9  2  0
  4 16  2  0
  4 18  1  0
  5 10  2  0
  5 12  1  0
  6  7  2  0
  6 11  2  0
  8 14  1  0
  8 19  1  0
  9 18  1  0
  9 21  1  0
 10 19  2  0
 11 26  1  0
 12 18  1  0
 13 17  1  0
 13 19  1  0
 14 17  1  0
 14 22  1  0
 15 20  1  0
 15 26  1  0
 16 28  1  0
 17 25  1  0
 17 27  1  0
 21 28  2  0
 24 27  1  0
 26 28  1  0
M  END
$$$$
