
     RDKit          3D

 31 31  0  0  0  0  0  0  0  0999 V2000
    9.2328   -0.2486    0.5625 C   0  0  0  0  0  0  0  0  0  0  0  0
    3.3322   -2.3098    2.1214 N   0  0  0  0  0  0  0  0  0  0  0  0
    2.7594   -4.0145    3.7606 O   0  0  0  0  0  0  0  0  0  0  0  0
   -0.5401    2.5320   -0.7023 C   0  0  0  0  0  0  0  0  0  0  0  0
    3.2403    3.0446    0.6810 C   0  0  0  0  0  0  0  0  0  0  0  0
    3.1145   -1.5670    1.0324 C   0  0  0  0  0  0  0  0  0  0  0  0
    4.8613    3.0432    2.4687 C   0  0  0  0  0  0  0  0  0  0  0  0
    7.9309   -1.1193    0.4608 C   0  0  0  0  0  0  0  0  0  0  0  0
    5.3241    4.7452    4.2870 O   0  0  0  0  0  0  0  0  0  0  0  0
    4.9434    3.6574    3.8689 C   0  0  0  0  0  0  0  0  0  0  0  0
    2.4319    0.6578    0.5121 C   0  0  0  0  0  0  0  0  0  0  0  0
    9.2267    2.3345    0.7287 O   0  0  0  0  0  0  0  0  0  0  0  0
    1.4919    1.6341    0.0273 C   0  0  0  0  0  0  0  0  0  0  0  0
    7.7648   -2.3390    1.3325 C   0  0  0  0  0  0  0  0  0  0  0  0
    1.1674   -2.7589    2.6353 O   0  0  0  0  0  0  0  0  0  0  0  0
    7.2562    2.8575    2.4281 O   0  0  0  0  0  0  0  0  0  0  0  0
   10.3872   -1.2094    1.1464 C   0  0  0  0  0  0  0  0  0  0  0  0
    3.4874    1.1447    1.2573 C   0  0  0  0  0  0  0  0  0  0  0  0
    3.7507    2.4508    1.5830 C   0  0  0  0  0  0  0  0  0  0  0  0
    6.1875    1.1724    3.5343 C   0  0  0  0  0  0  0  0  0  0  0  0
    5.0764    0.2805    3.6264 O   0  0  0  0  0  0  0  0  0  0  0  0
    9.1223    1.1375    1.2796 C   0  0  0  0  0  0  0  0  0  0  0  0
    4.7137   -2.6742    2.3463 C   0  0  0  0  0  0  0  0  0  0  0  0
    9.7844   -2.2207    2.1404 C   0  0  0  0  0  0  0  0  0  0  0  0
    9.0393   -3.3127    1.2475 C   0  0  0  0  0  0  0  0  0  0  0  0
    4.7569    2.9625    4.9289 O   0  0  0  0  0  0  0  0  0  0  0  0
    2.3533   -3.1118    2.8136 C   0  0  0  0  0  0  0  0  0  0  0  0
    2.1311   -0.8542    0.4396 C   0  0  0  0  0  0  0  0  0  0  0  0
    1.9952    2.9134    0.0086 N   0  0  0  0  0  0  0  0  0  0  0  0
    6.1122    2.1918    2.4220 C   0  0  0  0  0  0  0  0  0  0  0  0
    0.2381    1.3251   -0.4013 O   0  0  0  0  0  0  0  0  0  0  0  0
  1  8  1  0
  1 17  1  0
  1 22  1  0
  2  6  1  0
  2 23  1  0
  2 27  1  0
  3 27  2  0
  4 31  1  0
  5 19  1  0
  5 29  1  0
  6 28  1  0
  7 10  1  0
  7 19  1  0
  7 30  1  0
  8 14  1  0
  9 10  2  0
 10 26  1  0
 11 13  1  0
 11 18  2  0
 11 28  1  0
 12 22  1  0
 13 29  1  0
 13 31  1  0
 14 25  1  0
 15 27  1  0
 16 30  1  0
 17 24  1  0
 18 19  1  0
 20 21  1  0
 20 30  1  0
 24 25  1  0
M  END
$$$$
