
     RDKit          3D

 26 29  0  0  0  0  0  0  0  0999 V2000
    4.4835    2.4575    2.3082 C   0  0  0  0  0  0  0  0  0  0  0  0
    5.3674    4.0260    3.7849 O   0  0  0  0  0  0  0  0  0  0  0  0
   -0.5553    2.9224   -0.6174 C   0  0  0  0  0  0  0  0  0  0  0  0
    5.1299    1.2147    2.9326 C   0  0  0  0  0  0  0  0  0  0  0  0
    7.4953   -1.8302    1.2654 C   0  0  0  0  0  0  0  0  0  0  0  0
    1.5424    2.2409   -0.1782 C   0  0  0  0  0  0  0  0  0  0  0  0
    4.5252   -0.5051    1.2897 N   0  0  0  0  0  0  0  0  0  0  0  0
    8.0659   -4.0046    2.4386 C   0  0  0  0  0  0  0  0  0  0  0  0
    2.7393    1.9310    0.5559 C   0  0  0  0  0  0  0  0  0  0  0  0
    3.4687    0.5243    0.7866 C   0  0  0  0  0  0  0  0  0  0  0  0
    4.7735    3.8573    2.5339 C   0  0  0  0  0  0  0  0  0  0  0  0
    4.8788    4.5949    1.6100 O   0  0  0  0  0  0  0  0  0  0  0  0
    5.1302   -2.6145    2.1659 C   0  0  0  0  0  0  0  0  0  0  0  0
    5.6061   -0.2055    2.3348 C   0  0  0  0  0  0  0  0  0  0  0  0
    0.6711    1.0840   -0.3007 C   0  0  0  0  0  0  0  0  0  0  0  0
    7.9404    3.5617    4.0191 O   0  0  0  0  0  0  0  0  0  0  0  0
    8.4698   -3.0083    1.4248 C   0  0  0  0  0  0  0  0  0  0  0  0
    2.7382   -0.3559   -0.1632 C   0  0  0  0  0  0  0  0  0  0  0  0
    5.9799    1.7272    4.1317 C   0  0  0  0  0  0  0  0  0  0  0  0
   -0.5518    1.5651   -0.3328 O   0  0  0  0  0  0  0  0  0  0  0  0
    6.4611    3.1031    3.9613 C   0  0  0  0  0  0  0  0  0  0  0  0
    9.4215   -3.0307    0.5614 C   0  0  0  0  0  0  0  0  0  0  0  0
    6.3468   -1.7000    2.2293 C   0  0  0  0  0  0  0  0  0  0  0  0
    4.0212   -1.8741    1.4642 C   0  0  0  0  0  0  0  0  0  0  0  0
    1.4712   -0.0093   -0.1016 N   0  0  0  0  0  0  0  0  0  0  0  0
    0.7118    3.2935   -0.2304 N   0  0  0  0  0  0  0  0  0  0  0  0
  1  4  1  0
  1 11  1  0
  2 11  1  0
  2 21  1  0
  3 20  1  0
  3 26  1  0
  4 14  1  0
  4 19  1  0
  5 17  1  0
  5 23  1  0
  6  9  1  0
  6 15  1  0
  6 26  1  0
  7 10  1  0
  7 14  1  0
  7 24  1  0
  8 17  1  0
  9 10  2  0
 10 18  1  0
 11 12  2  0
 13 23  1  0
 13 24  1  0
 14 23  1  0
 15 20  1  0
 15 25  1  0
 16 21  2  0
 17 22  2  0
 18 25  1  0
 19 21  1  0
M  END
$$$$
