
     RDKit          3D

 35 37  0  0  0  0  0  0  0  0999 V2000
    3.3388    2.4207    1.4214 C   0  0  0  0  0  0  0  0  0  0  0  0
    5.2001    4.6981    4.1931 O   0  0  0  0  0  0  0  0  0  0  0  0
    4.2958   -1.2674    1.7376 C   0  0  0  0  0  0  0  0  0  0  0  0
    2.0742   -1.5003    0.9069 N   0  0  0  0  0  0  0  0  0  0  0  0
    2.5878   -0.4569    0.4358 C   0  0  0  0  0  0  0  0  0  0  0  0
    7.6146    0.4180    4.1414 C   0  0  0  0  0  0  0  0  0  0  0  0
    3.9467   -0.7245    0.5077 C   0  0  0  0  0  0  0  0  0  0  0  0
    6.5302    3.3056    2.5391 O   0  0  0  0  0  0  0  0  0  0  0  0
    2.2850    2.1189    0.4987 C   0  0  0  0  0  0  0  0  0  0  0  0
    5.2537    3.7032    3.4362 P   0  0  0  0  0  0  0  0  0  0  0  0
    4.6194    3.0466    4.7556 O   0  0  0  0  0  0  0  0  0  0  0  0
    5.4177   -0.5535    2.5314 C   0  0  0  0  0  0  0  0  0  0  0  0
    0.3380    3.0297   -0.4168 N   0  0  0  0  0  0  0  0  0  0  0  0
    6.3004    1.1371    4.3372 C   0  0  0  0  0  0  0  0  0  0  0  0
    1.4385   -3.0595    2.3223 N   0  0  0  0  0  0  0  0  0  0  0  0
    8.0107   -0.8074    2.0258 C   0  0  0  0  0  0  0  0  0  0  0  0
    8.9363   -3.2158    1.2063 C   0  0  0  0  0  0  0  0  0  0  0  0
    1.8855    0.7678    0.0919 C   0  0  0  0  0  0  0  0  0  0  0  0
    9.0385    0.4436    6.4270 O   0  0  0  0  0  0  0  0  0  0  0  0
    4.6804   -0.5453   -0.4264 O   0  0  0  0  0  0  0  0  0  0  0  0
    8.0237   -2.5690    3.8061 C   0  0  0  0  0  0  0  0  0  0  0  0
    8.8722    2.8788    5.5911 O   0  0  0  0  0  0  0  0  0  0  0  0
    5.1127    0.8250    3.2527 C   0  0  0  0  0  0  0  0  0  0  0  0
    4.0110    3.5680    1.9250 C   0  0  0  0  0  0  0  0  0  0  0  0
    8.5857   -1.6280    0.6635 C   0  0  0  0  0  0  0  0  0  0  0  0
    3.4945   -2.1790    2.3397 N   0  0  0  0  0  0  0  0  0  0  0  0
    8.1142   -0.9548    3.5964 C   0  0  0  0  0  0  0  0  0  0  0  0
    6.6805   -0.4012    1.7028 N   0  0  0  0  0  0  0  0  0  0  0  0
    8.1610   -3.5250    2.5531 C   0  0  0  0  0  0  0  0  0  0  0  0
    8.3067    1.7262    6.2727 S   0  0  0  0  0  0  0  0  0  0  0  0
    7.0693    1.8592    7.1043 O   0  0  0  0  0  0  0  0  0  0  0  0
    2.3135   -2.2639    1.8898 C   0  0  0  0  0  0  0  0  0  0  0  0
   -0.1479    1.8178   -0.6522 C   0  0  0  0  0  0  0  0  0  0  0  0
    1.5908    3.0273   -0.0050 C   0  0  0  0  0  0  0  0  0  0  0  0
    0.6375    0.7811   -0.3871 C   0  0  0  0  0  0  0  0  0  0  0  0
  1  9  2  3
  1 24  1  0
  2 10  1  0
  3  7  1  0
  3 12  1  0
  3 26  1  0
  4  5  1  0
  4 32  1  0
  5  7  1  0
  5 18  1  0
  6 14  1  0
  6 27  1  0
  7 20  2  0
  8 10  1  0
  9 18  1  0
  9 34  1  0
 10 11  1  0
 10 24  1  0
 12 23  1  0
 12 28  1  0
 13 33  1  0
 13 34  1  0
 14 23  1  0
 15 32  2  0
 16 25  1  0
 16 27  1  0
 16 28  1  0
 17 25  1  0
 17 29  1  0
 18 35  1  0
 19 30  1  0
 21 27  1  0
 21 29  1  0
 22 30  1  0
 26 32  1  0
 30 31  1  0
 33 35  2  0
M  END
$$$$
