
     RDKit          3D

 21 23  0  0  0  0  0  0  0  0999 V2000
    5.0927   -1.3152    1.2568 C   0  0  0  0  0  0  0  0  0  0  0  0
    4.8763    4.4690    1.5249 O   0  0  0  0  0  0  0  0  0  0  0  0
    0.6018    2.8937   -0.1598 C   0  0  0  0  0  0  0  0  0  0  0  0
    7.4345   -1.8672    0.9574 C   0  0  0  0  0  0  0  0  0  0  0  0
    4.3825    3.9019    3.8581 O   0  0  0  0  0  0  0  0  0  0  0  0
    9.2768   -3.2972    0.7970 C   0  0  0  0  0  0  0  0  0  0  0  0
    4.5230    3.5882    2.3896 C   0  0  0  0  0  0  0  0  0  0  0  0
    3.6708    1.0402    1.1524 C   0  0  0  0  0  0  0  0  0  0  0  0
    7.3613   -2.8329    1.9262 C   0  0  0  0  0  0  0  0  0  0  0  0
    4.9943   -2.3680    2.1952 C   0  0  0  0  0  0  0  0  0  0  0  0
    6.3217   -1.1088    0.7203 C   0  0  0  0  0  0  0  0  0  0  0  0
    2.0010    2.6261    0.1258 C   0  0  0  0  0  0  0  0  0  0  0  0
    8.4834   -3.6073    2.0013 O   0  0  0  0  0  0  0  0  0  0  0  0
    2.0469    0.0203    0.0197 C   0  0  0  0  0  0  0  0  0  0  0  0
    8.6012   -1.9985    0.2527 O   0  0  0  0  0  0  0  0  0  0  0  0
    2.5035    1.2902    0.4096 C   0  0  0  0  0  0  0  0  0  0  0  0
    2.8756   -0.9713    0.4562 N   0  0  0  0  0  0  0  0  0  0  0  0
    3.9624   -0.4396    0.9841 C   0  0  0  0  0  0  0  0  0  0  0  0
   -0.4161    1.7659   -0.3571 C   0  0  0  0  0  0  0  0  0  0  0  0
    4.2017    2.2116    1.9698 C   0  0  0  0  0  0  0  0  0  0  0  0
    6.1308   -3.0792    2.5670 C   0  0  0  0  0  0  0  0  0  0  0  0
  1 10  1  0
  1 11  2  0
  1 18  1  0
  2  7  2  0
  3 12  2  3
  3 19  1  0
  4  9  2  0
  4 11  1  0
  4 15  1  0
  5  7  1  0
  6 13  1  0
  6 15  1  0
  7 20  1  0
  8 16  1  0
  8 18  1  0
  8 20  2  3
  9 13  1  0
  9 21  1  0
 10 21  2  0
 12 16  1  0
 14 16  1  0
 14 17  1  0
 17 18  1  0
M  END
$$$$
