
     RDKit          3D

 31 33  0  0  0  0  0  0  0  0999 V2000
    4.5358   -3.1228    2.5572 C   0  0  0  0  0  0  0  0  0  0  0  0
    3.7863    3.0457    1.2958 O   0  0  0  0  0  0  0  0  0  0  0  0
    1.7116    2.6792   -0.0199 N   0  0  0  0  0  0  0  0  0  0  0  0
    0.6586    2.1416   -0.3057 C   0  0  0  0  0  0  0  0  0  0  0  0
    6.2321   -1.6557    1.4944 N   0  0  0  0  0  0  0  0  0  0  0  0
    6.6621    2.9186    3.6080 C   0  0  0  0  0  0  0  0  0  0  0  0
    2.8269    2.2875    0.6375 C   0  0  0  0  0  0  0  0  0  0  0  0
    8.5685   -2.0643    0.0506 C   0  0  0  0  0  0  0  0  0  0  0  0
    5.1690    1.0984    5.3020 O   0  0  0  0  0  0  0  0  0  0  0  0
    5.9257    2.6413    2.3028 O   0  0  0  0  0  0  0  0  0  0  0  0
    7.0596   -1.7108    2.9190 C   0  0  0  0  0  0  0  0  0  0  0  0
    1.8606    0.2488   -0.0770 C   0  0  0  0  0  0  0  0  0  0  0  0
    2.2299   -2.7667    2.3002 C   0  0  0  0  0  0  0  0  0  0  0  0
    7.4209    0.6556    4.5645 C   0  0  0  0  0  0  0  0  0  0  0  0
    0.6568    0.7867   -0.4632 C   0  0  0  0  0  0  0  0  0  0  0  0
    3.2392   -3.5081    2.8498 C   0  0  0  0  0  0  0  0  0  0  0  0
    9.1492   -3.3482    0.6035 C   0  0  0  0  0  0  0  0  0  0  0  0
   -0.4525    2.7228   -0.4461 N   0  0  0  0  0  0  0  0  0  0  0  0
    2.9348    0.8874    0.4618 C   0  0  0  0  0  0  0  0  0  0  0  0
    1.0482   -2.7982    2.9735 O   0  0  0  0  0  0  0  0  0  0  0  0
    7.9234    3.6512    3.9257 O   0  0  0  0  0  0  0  0  0  0  0  0
    9.2728   -1.3345   -1.0475 C   0  0  0  0  0  0  0  0  0  0  0  0
    4.6541    4.1244    2.7601 O   0  0  0  0  0  0  0  0  0  0  0  0
    7.3326   -1.2906    0.5221 C   0  0  0  0  0  0  0  0  0  0  0  0
    3.8143   -1.2717    1.2229 C   0  0  0  0  0  0  0  0  0  0  0  0
    4.6304    3.2976    2.1986 C   0  0  0  0  0  0  0  0  0  0  0  0
    6.3548    1.8102    4.6989 C   0  0  0  0  0  0  0  0  0  0  0  0
    4.8409   -2.0698    1.7355 C   0  0  0  0  0  0  0  0  0  0  0  0
    2.5661   -1.7833    1.3466 C   0  0  0  0  0  0  0  0  0  0  0  0
    4.0586    0.0760    0.8267 O   0  0  0  0  0  0  0  0  0  0  0  0
    6.7355   -0.6759    4.1234 C   0  0  0  0  0  0  0  0  0  0  0  0
  1 16  2  0
  1 28  1  0
  2  7  1  0
  2 26  1  0
  3  4  1  0
  3  7  1  0
  4 15  1  0
  4 18  2  0
  5 11  1  0
  5 24  1  0
  5 28  1  0
  6 10  1  0
  6 21  2  0
  6 27  1  0
  7 19  2  0
  8 17  1  0
  8 22  1  0
  8 24  2  3
  9 27  1  0
 10 26  1  0
 11 31  1  0
 12 15  1  0
 12 19  1  0
 13 16  1  0
 13 20  1  0
 13 29  1  0
 14 27  1  0
 14 31  1  0
 19 30  1  0
 23 26  2  0
 25 28  1  0
 25 29  1  0
 25 30  1  0
M  END
$$$$
