
     RDKit          3D

 26 28  0  0  0  0  0  0  0  0999 V2000
   99.2938    7.5169  -90.8142 C   0  0  0  0  0  0  0  0  0  0  0  0
  101.4801    8.6159  -91.1857 C   0  0  0  0  0  0  0  0  0  0  0  0
  101.3768    6.2426  -90.4721 C   0  0  0  0  0  0  0  0  0  0  0  0
   98.0384    4.2533  -89.5259 O   0  0  0  0  0  0  0  0  0  0  0  0
  100.3786    3.5075  -93.2329 C   0  0  0  0  0  0  0  0  0  0  0  0
   98.2519    6.0221  -88.2566 O   0  0  0  0  0  0  0  0  0  0  0  0
  100.7134    7.5060  -90.8453 C   0  0  0  0  0  0  0  0  0  0  0  0
  102.5167    3.7838  -92.3932 C   0  0  0  0  0  0  0  0  0  0  0  0
  106.7585    5.8694  -90.3679 C   0  0  0  0  0  0  0  0  0  0  0  0
  103.7404    4.3986  -92.7138 N   0  0  0  0  0  0  0  0  0  0  0  0
  100.8205    9.8501  -91.3436 C   0  0  0  0  0  0  0  0  0  0  0  0
  105.4535    5.3959  -90.7728 C   0  0  0  0  0  0  0  0  0  0  0  0
  100.8956    5.2186  -91.4621 N   0  0  0  0  0  0  0  0  0  0  0  0
   99.4317    9.9196  -91.2431 C   0  0  0  0  0  0  0  0  0  0  0  0
   98.6716    8.7897  -90.9857 C   0  0  0  0  0  0  0  0  0  0  0  0
  101.7842    4.0873  -91.1939 C   0  0  0  0  0  0  0  0  0  0  0  0
  107.1506    3.8994  -91.5656 C   0  0  0  0  0  0  0  0  0  0  0  0
  104.8780    3.6419  -92.4441 C   0  0  0  0  0  0  0  0  0  0  0  0
  100.3099    4.9909  -92.8175 C   0  0  0  0  0  0  0  0  0  0  0  0
  105.7361    4.1910  -91.4928 N   0  0  0  0  0  0  0  0  0  0  0  0
  101.8007    3.2397  -93.4434 O   0  0  0  0  0  0  0  0  0  0  0  0
   98.5689    6.2882  -90.5840 C   0  0  0  0  0  0  0  0  0  0  0  0
  105.1550    2.6510  -93.1610 O   0  0  0  0  0  0  0  0  0  0  0  0
   98.3511    5.5180  -89.3776 C   0  0  0  0  0  0  0  0  0  0  0  0
  107.6874    5.2611  -91.3980 C   0  0  0  0  0  0  0  0  0  0  0  0
   98.7133   11.2783  -91.4438 C   0  0  0  0  0  0  0  0  0  0  0  0
  1  7  1  0
  1 15  1  0
  1 22  1  0
  2  7  2  0
  2 11  1  0
  3  7  1  0
  3 13  1  0
  4 24  2  0
  5 19  1  0
  5 21  1  0
  6 24  1  0
  8 10  1  0
  8 16  1  0
  8 21  1  0
  9 12  1  0
  9 25  1  0
 10 18  1  0
 11 14  1  0
 12 20  1  0
 13 16  1  0
 13 19  1  0
 14 15  2  0
 14 26  1  0
 17 20  1  0
 17 25  1  0
 18 20  1  0
 18 23  2  0
 22 24  1  0
M  END
$$$$
