
     RDKit          3D

 44 45  0  0  0  0  0  0  0  0999 V2000
  -22.2106   -6.2111    4.3364 C   0  0  0  0  0  0  0  0  0  0  0  0
  -23.1796   -5.7927    0.9236 C   0  0  0  0  0  0  0  0  0  0  0  0
  -18.4653   -5.1068    4.8169 C   0  0  0  0  0  0  0  0  0  0  0  0
  -19.6832   -1.6254    2.6562 F   0  0  0  0  0  0  0  0  0  0  0  0
  -22.9282   -6.9369    1.9459 C   0  0  0  0  0  0  0  0  0  0  0  0
  -22.5693   -7.6628    4.2427 C   0  0  0  0  0  0  0  0  0  0  0  0
  -23.3300   -8.9238    6.1377 C   0  0  0  0  0  0  0  0  0  0  0  0
  -19.6027   -6.0619    4.9271 C   0  0  0  0  0  0  0  0  0  0  0  0
  -12.6076   -6.8195    3.8706 N   0  0  0  0  0  0  0  0  0  0  0  0
  -20.8798   -3.0758    1.3905 F   0  0  0  0  0  0  0  0  0  0  0  0
  -12.7998   -6.0100    5.8639 N   0  0  0  0  0  0  0  0  0  0  0  0
  -21.4023   -8.5418    4.0157 C   0  0  0  0  0  0  0  0  0  0  0  0
  -21.3409   -2.9580    3.7228 C   0  0  0  0  0  0  0  0  0  0  0  0
  -11.6912   -1.2131   -0.3551 O   0  0  0  0  0  0  0  0  0  0  0  0
  -21.0681   -5.8450    5.2109 C   0  0  0  0  0  0  0  0  0  0  0  0
  -20.7271   -2.4292    2.4847 C   0  0  0  0  0  0  0  0  0  0  0  0
  -23.2594   -4.6094    1.5198 O   0  0  0  0  0  0  0  0  0  0  0  0
  -24.2047   -7.2077    2.4481 O   0  0  0  0  0  0  0  0  0  0  0  0
  -10.2332   -7.9457    2.6198 O   0  0  0  0  0  0  0  0  0  0  0  0
  -11.3532   -6.8062    4.3998 C   0  0  0  0  0  0  0  0  0  0  0  0
  -21.3161   -6.9958    2.1386 C   0  0  0  0  0  0  0  0  0  0  0  0
  -11.4094   -0.6120   -3.9012 C   0  0  0  0  0  0  0  0  0  0  0  0
  -24.2777   -6.7685    5.6737 O   0  0  0  0  0  0  0  0  0  0  0  0
  -20.3335   -7.7124    3.2114 C   0  0  0  0  0  0  0  0  0  0  0  0
  -19.0002   -3.9463    3.9495 C   0  0  0  0  0  0  0  0  0  0  0  0
  -14.9992   -6.3151    4.5130 N   0  0  0  0  0  0  0  0  0  0  0  0
  -20.2730   -3.4170    4.5821 C   0  0  0  0  0  0  0  0  0  0  0  0
  -19.2423   -7.2541    4.2067 C   0  0  0  0  0  0  0  0  0  0  0  0
  -20.3139   -3.1841    6.0474 C   0  0  0  0  0  0  0  0  0  0  0  0
  -10.8526   -0.5467   -2.4957 C   0  0  0  0  0  0  0  0  0  0  0  0
  -11.6032   -1.5472   -1.6271 C   0  0  0  0  0  0  0  0  0  0  0  0
  -17.3508   -5.9867    4.5941 C   0  0  0  0  0  0  0  0  0  0  0  0
  -16.0595   -5.8328    5.1559 C   0  0  0  0  0  0  0  0  0  0  0  0
  -22.7214   -3.1386    4.0309 C   0  0  0  0  0  0  0  0  0  0  0  0
  -22.1704   -7.8258    1.6271 O   0  0  0  0  0  0  0  0  0  0  0  0
  -13.5669   -6.3474    4.7438 C   0  0  0  0  0  0  0  0  0  0  0  0
  -10.1614   -7.3845    3.7182 C   0  0  0  0  0  0  0  0  0  0  0  0
  -17.8431   -7.2613    4.2178 C   0  0  0  0  0  0  0  0  0  0  0  0
  -23.7674   -7.9249    5.0954 C   0  0  0  0  0  0  0  0  0  0  0  0
  -12.1914   -2.5419   -2.1316 O   0  0  0  0  0  0  0  0  0  0  0  0
  -22.1454   -8.3453    6.7880 C   0  0  0  0  0  0  0  0  0  0  0  0
  -23.3342   -3.1977    5.3330 C   0  0  0  0  0  0  0  0  0  0  0  0
   -9.0138   -7.3232    4.3176 N   0  0  0  0  0  0  0  0  0  0  0  0
  -11.4304   -6.3119    5.6247 N   0  0  0  0  0  0  0  0  0  0  0  0
  1  6  1  0
  1 15  1  0
  2  5  1  0
  2 17  1  0
  3  8  1  0
  3 25  1  0
  3 32  1  0
  4 16  1  0
  5 18  1  0
  5 35  1  0
  6 12  1  0
  6 39  1  0
  7 39  1  0
  7 41  1  0
  8 15  1  0
  8 28  1  0
  9 20  2  0
  9 36  1  0
 10 16  1  0
 11 36  1  0
 11 44  1  0
 12 24  1  0
 13 16  1  0
 13 27  1  0
 13 34  1  0
 14 31  2  0
 19 37  2  0
 20 37  1  0
 20 44  1  0
 21 24  1  0
 21 35  1  0
 22 30  1  0
 23 39  1  0
 24 28  1  0
 25 27  1  0
 26 33  2  3
 26 36  1  0
 27 29  1  0
 28 38  1  0
 30 31  1  0
 31 40  1  0
 32 33  1  0
 32 38  1  0
 34 42  1  0
 37 43  1  0
M  END
$$$$
