
     RDKit          3D

 10  9  0  0  0  0  0  0  0  0999 V2000
  -18.3331   -4.7336    4.3086 O   0  0  0  0  0  0  0  0  0  0  0  0
  -12.3162   -6.7833    6.0294 O   0  0  0  0  0  0  0  0  0  0  0  0
  -11.6515   -7.0010    3.9112 O   0  0  0  0  0  0  0  0  0  0  0  0
  -18.6489   -7.1642    4.3596 C   0  0  0  0  0  0  0  0  0  0  0  0
  -13.8414   -6.2933    4.2994 C   0  0  0  0  0  0  0  0  0  0  0  0
  -16.1741   -6.5427    5.0998 C   0  0  0  0  0  0  0  0  0  0  0  0
  -18.0893   -5.9334    3.7767 C   0  0  0  0  0  0  0  0  0  0  0  0
  -16.5871   -6.0766    3.7085 O   0  0  0  0  0  0  0  0  0  0  0  0
  -14.7753   -5.8800    5.3769 C   0  0  0  0  0  0  0  0  0  0  0  0
  -12.4884   -6.5785    4.8286 C   0  0  0  0  0  0  0  0  0  0  0  0
  1  7  1  0
  2 10  2  0
  3 10  1  0
  4  7  1  0
  5  9  1  0
  5 10  1  0
  6  8  1  0
  6  9  1  0
  7  8  1  0
M  END
$$$$
