
     RDKit          3D

 15 15  0  0  0  0  0  0  0  0999 V2000
   11.9434   56.6604   80.9761 C   0  0  0  0  0  0  0  0  0  0  0  0
   12.5261   58.5317   79.6686 C   0  0  0  0  0  0  0  0  0  0  0  0
   10.0621   57.6361   79.7959 C   0  0  0  0  0  0  0  0  0  0  0  0
   14.1316   57.5841   81.4503 C   0  0  0  0  0  0  0  0  0  0  0  0
   14.7095   56.1088   83.2671 O   0  0  0  0  0  0  0  0  0  0  0  0
   13.3862   56.3412   80.8494 C   0  0  0  0  0  0  0  0  0  0  0  0
   13.6831   58.7642   80.6040 C   0  0  0  0  0  0  0  0  0  0  0  0
   11.4911   57.5405   79.9059 C   0  0  0  0  0  0  0  0  0  0  0  0
   11.5725   56.9069   82.2081 O   0  0  0  0  0  0  0  0  0  0  0  0
   16.2791   57.2023   82.2819 O   0  0  0  0  0  0  0  0  0  0  0  0
    9.3456   56.4134   80.1522 C   0  0  0  0  0  0  0  0  0  0  0  0
    9.9605   55.1934   80.4413 O   0  0  0  0  0  0  0  0  0  0  0  0
   13.4639   59.9661   81.2638 O   0  0  0  0  0  0  0  0  0  0  0  0
   12.3202   59.4161   78.7127 O   0  0  0  0  0  0  0  0  0  0  0  0
   15.1247   56.9336   82.4295 C   0  0  0  0  0  0  0  0  0  0  0  0
  1  6  1  0
  1  8  1  0
  1  9  1  0
  2  7  1  0
  2  8  1  0
  2 14  1  0
  3  8  1  0
  3 11  1  0
  4  6  1  0
  4  7  1  0
  4 15  1  0
  5 15  2  0
  7 13  1  0
 10 15  1  0
 11 12  1  0
M  END
$$$$
