
     RDKit          3D

 11 11  0  0  0  0  0  0  0  0999 V2000
   11.1486   57.4072   80.8028 O   0  0  0  0  0  0  0  0  0  0  0  0
   13.0893   60.2592   81.0019 O   0  0  0  0  0  0  0  0  0  0  0  0
   14.9921   58.1527   79.8375 C   0  0  0  0  0  0  0  0  0  0  0  0
   16.3835   56.4162   80.7449 C   0  0  0  0  0  0  0  0  0  0  0  0
   16.1343   57.3806   79.7700 C   0  0  0  0  0  0  0  0  0  0  0  0
   11.5302   58.7525   79.1163 O   0  0  0  0  0  0  0  0  0  0  0  0
   15.4822   56.2404   81.7772 C   0  0  0  0  0  0  0  0  0  0  0  0
   11.7196   58.3678   80.2587 C   0  0  0  0  0  0  0  0  0  0  0  0
   14.3256   57.0297   81.8550 C   0  0  0  0  0  0  0  0  0  0  0  0
   12.9237   58.9214   80.9784 C   0  0  0  0  0  0  0  0  0  0  0  0
   14.1141   58.0180   80.8839 C   0  0  0  0  0  0  0  0  0  0  0  0
  1  8  2  0
  2 10  1  0
  3  5  1  0
  3 11  2  0
  4  5  2  0
  4  7  1  0
  6  8  1  0
  7  9  2  0
  8 10  1  0
  9 11  1  0
 10 11  1  0
M  END
$$$$
