
     RDKit          3D

 16 16  0  0  0  0  0  0  0  0999 V2000
   12.9405   60.1119   78.6530 O   0  0  0  0  0  0  0  0  0  0  0  0
   12.4454   59.2081   79.4802 C   0  0  0  0  0  0  0  0  0  0  0  0
   10.0537   59.3954   80.2735 C   0  0  0  0  0  0  0  0  0  0  0  0
   14.8430   58.3041   79.4878 C   0  0  0  0  0  0  0  0  0  0  0  0
   13.5960   56.7005   81.7507 N   0  0  0  0  0  0  0  0  0  0  0  0
   13.5834   58.2761   79.9149 N   0  0  0  0  0  0  0  0  0  0  0  0
    9.8156   58.0801   79.9341 O   0  0  0  0  0  0  0  0  0  0  0  0
   14.9532   56.5574   82.0583 C   0  0  0  0  0  0  0  0  0  0  0  0
   11.6299   60.5053   81.7927 O   0  0  0  0  0  0  0  0  0  0  0  0
   15.8968   56.8819   84.2812 N   0  0  0  0  0  0  0  0  0  0  0  0
    9.7720   60.3068   79.3243 O   0  0  0  0  0  0  0  0  0  0  0  0
   15.3653   55.9551   83.3348 C   0  0  0  0  0  0  0  0  0  0  0  0
   15.9136   57.6343   80.0061 N   0  0  0  0  0  0  0  0  0  0  0  0
   11.5530   59.5601   80.7089 C   0  0  0  0  0  0  0  0  0  0  0  0
   13.2494   57.4180   80.7834 C   0  0  0  0  0  0  0  0  0  0  0  0
   15.9303   56.9111   81.1266 C   0  0  0  0  0  0  0  0  0  0  0  0
  1  2  1  0
  2  6  1  0
  2 14  1  0
  3  7  1  0
  3 11  1  0
  3 14  1  0
  4  6  1  0
  4 13  2  0
  5  8  1  0
  5 15  2  0
  6 15  1  0
  8 12  1  0
  8 16  1  0
  9 14  1  0
 10 12  1  0
 13 16  1  0
M  END
$$$$
