
     RDKit          3D

 26 28  0  0  0  0  0  0  0  0999 V2000
   12.4313   30.7007   14.5761 C   0  0  0  0  0  0  0  0  0  0  0  0
   13.0734   34.9250   15.5156 C   0  0  0  0  0  0  0  0  0  0  0  0
   11.4060   36.5328   17.1753 C   0  0  0  0  0  0  0  0  0  0  0  0
   13.9807   32.7629   14.5150 C   0  0  0  0  0  0  0  0  0  0  0  0
   15.8347   33.5683   13.2734 N   0  0  0  0  0  0  0  0  0  0  0  0
   17.8344   33.9629   12.6780 O   0  0  0  0  0  0  0  0  0  0  0  0
   11.1170   35.1527   16.8547 C   0  0  0  0  0  0  0  0  0  0  0  0
   15.4331   30.2627   14.0969 F   0  0  0  0  0  0  0  0  0  0  0  0
   15.2565   32.5433   13.8183 C   0  0  0  0  0  0  0  0  0  0  0  0
   16.4397   34.7826   10.0411 C   0  0  0  0  0  0  0  0  0  0  0  0
    9.9559   34.5250   17.3168 N   0  0  0  0  0  0  0  0  0  0  0  0
   15.8517   31.3141   13.7614 C   0  0  0  0  0  0  0  0  0  0  0  0
   11.9642   34.5517   16.1433 C   0  0  0  0  0  0  0  0  0  0  0  0
   17.9101   36.3030   11.1720 C   0  0  0  0  0  0  0  0  0  0  0  0
   13.2027   31.7357   14.7313 O   0  0  0  0  0  0  0  0  0  0  0  0
   15.9884   35.0125   11.4577 C   0  0  0  0  0  0  0  0  0  0  0  0
   17.6171   35.7499    9.8061 C   0  0  0  0  0  0  0  0  0  0  0  0
    9.6680   33.2592   17.1103 N   0  0  0  0  0  0  0  0  0  0  0  0
   16.6186   36.2148   11.9164 N   0  0  0  0  0  0  0  0  0  0  0  0
   11.4194   30.1488   15.5129 C   0  0  0  0  0  0  0  0  0  0  0  0
   10.2238   32.3357   16.3981 C   0  0  0  0  0  0  0  0  0  0  0  0
   12.5650   37.0246   16.5122 C   0  0  0  0  0  0  0  0  0  0  0  0
   10.6150   31.0496   16.1835 N   0  0  0  0  0  0  0  0  0  0  0  0
   13.3542   36.2667   15.6980 N   0  0  0  0  0  0  0  0  0  0  0  0
   16.6631   33.9548   12.4325 C   0  0  0  0  0  0  0  0  0  0  0  0
   13.7822   34.0392   14.8181 C   0  0  0  0  0  0  0  0  0  0  0  0
  1 15  1  0
  1 20  1  0
  2 13  2  0
  2 24  1  0
  2 26  1  0
  3  7  1  0
  3 22  1  0
  4  9  1  0
  4 15  1  0
  4 26  2  3
  5  9  1  0
  5 25  1  0
  6 25  2  0
  7 11  2  3
  7 13  1  0
  8 12  1  0
  9 12  2  3
 10 16  1  0
 10 17  1  0
 11 18  1  0
 14 17  1  0
 14 19  1  0
 16 19  1  0
 16 25  1  0
 18 21  1  0
 20 23  2  3
 21 23  1  0
 22 24  2  0
M  END
$$$$
