
     RDKit          3D

 18 20  0  0  0  0  0  0  0  0999 V2000
   22.7426   22.8396   18.0544 C   0  0  0  0  0  0  0  0  0  0  0  0
   24.9390   22.1182   18.8039 C   0  0  0  0  0  0  0  0  0  0  0  0
   23.6755   22.8958   19.2099 C   0  0  0  0  0  0  0  0  0  0  0  0
   19.6757   22.0803   19.7560 C   0  0  0  0  0  0  0  0  0  0  0  0
   22.6471   23.7782   16.9685 C   0  0  0  0  0  0  0  0  0  0  0  0
   19.5813   23.3550   21.7193 O   0  0  0  0  0  0  0  0  0  0  0  0
   23.6873   21.4987   21.3430 C   0  0  0  0  0  0  0  0  0  0  0  0
   21.8030   23.1122   20.8879 C   0  0  0  0  0  0  0  0  0  0  0  0
   24.0344   24.3478   19.6569 C   0  0  0  0  0  0  0  0  0  0  0  0
   24.8362   21.9452   21.7183 O   0  0  0  0  0  0  0  0  0  0  0  0
   22.8785   22.2183   20.3219 C   0  0  0  0  0  0  0  0  0  0  0  0
   21.6099   18.8822   20.4735 O   0  0  0  0  0  0  0  0  0  0  0  0
   21.6421   20.2288   20.8720 C   0  0  0  0  0  0  0  0  0  0  0  0
   21.6770   21.8097   18.3127 C   0  0  0  0  0  0  0  0  0  0  0  0
   22.0883   21.0777   19.6139 C   0  0  0  0  0  0  0  0  0  0  0  0
   20.3883   22.6687   20.9539 C   0  0  0  0  0  0  0  0  0  0  0  0
   20.2866   22.5016   18.4592 C   0  0  0  0  0  0  0  0  0  0  0  0
   22.8486   20.3769   21.8874 C   0  0  0  0  0  0  0  0  0  0  0  0
  1  3  1  0
  1  5  1  0
  1 14  1  0
  2  3  1  0
  3  9  1  0
  3 11  1  0
  4 16  1  0
  4 17  1  0
  6 16  1  0
  7 10  1  0
  7 11  1  0
  7 18  1  0
  8 11  1  0
  8 16  1  0
 11 15  1  0
 12 13  1  0
 13 15  1  0
 13 18  1  0
 14 15  1  0
 14 17  1  0
M  END
$$$$
