
     RDKit          3D

 28 29  0  0  0  0  0  0  0  0999 V2000
    8.3857  -10.5592  -18.8056 C   0  0  0  0  0  0  0  0  0  0  0  0
    8.9710  -11.4586  -17.9153 O   0  0  0  0  0  0  0  0  0  0  0  0
    8.1066  -12.0489  -16.8966 C   0  0  0  0  0  0  0  0  0  0  0  0
    1.2860  -12.7320  -14.5203 O   0  0  0  0  0  0  0  0  0  0  0  0
    6.7642   -8.8168  -18.9199 O   0  0  0  0  0  0  0  0  0  0  0  0
    0.9839  -14.0886  -12.5076 C   0  0  0  0  0  0  0  0  0  0  0  0
    7.5816  -11.9606  -14.4603 O   0  0  0  0  0  0  0  0  0  0  0  0
    4.1745  -12.8683  -14.0687 C   0  0  0  0  0  0  0  0  0  0  0  0
    8.7586  -10.0024  -15.9141 C   0  0  0  0  0  0  0  0  0  0  0  0
    9.7954  -12.1389  -15.1892 O   0  0  0  0  0  0  0  0  0  0  0  0
    8.5442  -11.5075  -15.5246 C   0  0  0  0  0  0  0  0  0  0  0  0
    6.9713  -14.0694  -15.2647 O   0  0  0  0  0  0  0  0  0  0  0  0
    1.5541  -14.5721  -11.2026 C   0  0  0  0  0  0  0  0  0  0  0  0
    6.9619  -12.5787  -17.7481 C   0  0  0  0  0  0  0  0  0  0  0  0
    3.1588  -13.0968  -13.0523 C   0  0  0  0  0  0  0  0  0  0  0  0
    0.5724  -13.6570  -11.1805 O   0  0  0  0  0  0  0  0  0  0  0  0
    7.3943   -9.6675  -18.1177 C   0  0  0  0  0  0  0  0  0  0  0  0
    5.5475  -13.1222  -13.6554 C   0  0  0  0  0  0  0  0  0  0  0  0
    1.7552  -15.9240  -11.2684 O   0  0  0  0  0  0  0  0  0  0  0  0
    1.6809  -12.9087  -13.1694 C   0  0  0  0  0  0  0  0  0  0  0  0
    7.6568   -9.4993  -16.7794 O   0  0  0  0  0  0  0  0  0  0  0  0
    8.2191  -10.8541  -20.2990 C   0  0  0  0  0  0  0  0  0  0  0  0
    6.6533  -12.9857  -14.6388 C   0  0  0  0  0  0  0  0  0  0  0  0
    2.8980  -13.9525  -10.8452 C   0  0  0  0  0  0  0  0  0  0  0  0
    4.4637  -14.9375  -12.4717 C   0  0  0  0  0  0  0  0  0  0  0  0
    3.9619  -11.8876  -14.9647 O   0  0  0  0  0  0  0  0  0  0  0  0
    5.7434  -14.3098  -12.8142 C   0  0  0  0  0  0  0  0  0  0  0  0
    3.5902  -13.9878  -12.0875 O   0  0  0  0  0  0  0  0  0  0  0  0
  1  2  1  0
  1 17  1  0
  1 22  1  0
  2  3  1  0
  3 11  1  0
  3 14  1  0
  4 20  1  0
  5 17  2  0
  6 13  1  0
  6 20  1  0
  7 11  1  0
  7 23  1  0
  8 15  1  0
  8 18  1  0
  8 26  1  0
  9 11  1  0
  9 21  1  0
 10 11  1  0
 12 23  2  0
 13 16  1  0
 13 19  1  0
 13 24  1  0
 15 20  1  0
 15 28  1  0
 17 21  1  0
 18 23  1  0
 18 27  1  0
 25 27  1  0
 25 28  1  0
M  END
$$$$
