
     RDKit          3D

 18 19  0  0  0  0  0  0  0  0999 V2000
   23.5427   20.4547   21.9103 C   0  0  0  0  0  0  0  0  0  0  0  0
   23.3151   25.2717   18.0812 C   0  0  0  0  0  0  0  0  0  0  0  0
   20.5084   23.0858   20.6163 C   0  0  0  0  0  0  0  0  0  0  0  0
   24.3806   23.3326   16.9416 C   0  0  0  0  0  0  0  0  0  0  0  0
   19.7906   23.6505   21.6821 C   0  0  0  0  0  0  0  0  0  0  0  0
   24.1116   21.7858   21.3316 C   0  0  0  0  0  0  0  0  0  0  0  0
   22.1703   23.1595   17.9278 C   0  0  0  0  0  0  0  0  0  0  0  0
   19.8102   22.1240   19.8176 C   0  0  0  0  0  0  0  0  0  0  0  0
   22.7609   23.2929   19.3738 C   0  0  0  0  0  0  0  0  0  0  0  0
   22.6118   20.9148   19.8019 O   0  0  0  0  0  0  0  0  0  0  0  0
   23.6463   24.5322   19.3367 C   0  0  0  0  0  0  0  0  0  0  0  0
   24.8258   24.6559   20.1240 C   0  0  0  0  0  0  0  0  0  0  0  0
   23.4793   22.0316   19.9488 C   0  0  0  0  0  0  0  0  0  0  0  0
   23.0220   24.1499   17.0369 C   0  0  0  0  0  0  0  0  0  0  0  0
   22.6872   18.1711   20.1106 O   0  0  0  0  0  0  0  0  0  0  0  0
   21.7740   18.9256   20.8930 C   0  0  0  0  0  0  0  0  0  0  0  0
   22.3222   20.2995   21.0823 C   0  0  0  0  0  0  0  0  0  0  0  0
   21.6940   23.5900   20.2982 O   0  0  0  0  0  0  0  0  0  0  0  0
  1  6  1  0
  1 17  1  0
  2 11  1  0
  2 14  1  0
  3  5  1  0
  3  8  1  0
  3 18  1  0
  4 14  1  0
  6 13  1  0
  7  9  1  0
  7 14  1  0
  9 11  1  0
  9 13  1  0
  9 18  1  0
 10 13  1  0
 10 17  1  0
 11 12  1  0
 15 16  1  0
 16 17  1  0
M  END
$$$$
