
     RDKit          3D

 21 22  0  0  0  0  0  0  0  0999 V2000
   20.0453   23.3407   20.2374 C   0  0  0  0  0  0  0  0  0  0  0  0
   24.0268   22.5340   18.4780 C   0  0  0  0  0  0  0  0  0  0  0  0
   23.9400   21.0405   22.4022 C   0  0  0  0  0  0  0  0  0  0  0  0
   18.1736   24.5144   20.9966 O   0  0  0  0  0  0  0  0  0  0  0  0
   24.9570   23.1972   19.5194 C   0  0  0  0  0  0  0  0  0  0  0  0
   20.3102   21.7956   20.4763 C   0  0  0  0  0  0  0  0  0  0  0  0
   22.5330   23.8079   17.0873 C   0  0  0  0  0  0  0  0  0  0  0  0
   21.9710   19.8599   21.0740 C   0  0  0  0  0  0  0  0  0  0  0  0
   22.3095   18.5692   20.5543 O   0  0  0  0  0  0  0  0  0  0  0  0
   22.7795   22.1201   20.5183 O   0  0  0  0  0  0  0  0  0  0  0  0
   21.0229   20.4627   19.9179 C   0  0  0  0  0  0  0  0  0  0  0  0
   21.7301   23.2388   18.1696 C   0  0  0  0  0  0  0  0  0  0  0  0
   23.0361   21.0660   23.5070 O   0  0  0  0  0  0  0  0  0  0  0  0
   19.2292   23.9034   21.3519 C   0  0  0  0  0  0  0  0  0  0  0  0
   24.7481   22.3640   22.1629 C   0  0  0  0  0  0  0  0  0  0  0  0
   23.1705   20.8365   21.0932 C   0  0  0  0  0  0  0  0  0  0  0  0
   25.3701   22.2415   20.7093 C   0  0  0  0  0  0  0  0  0  0  0  0
   22.6211   22.4482   19.1241 C   0  0  0  0  0  0  0  0  0  0  0  0
   19.5517   23.6163   22.5317 O   0  0  0  0  0  0  0  0  0  0  0  0
   23.9167   23.3070   17.1651 C   0  0  0  0  0  0  0  0  0  0  0  0
   21.7876   24.3423   15.9360 C   0  0  0  0  0  0  0  0  0  0  0  0
  1  6  1  0
  1 14  1  0
  2  5  1  0
  2 18  1  0
  2 20  1  0
  3 13  1  0
  3 15  1  0
  3 16  1  0
  4 14  2  0
  5 17  1  0
  6 11  1  0
  7 12  1  0
  7 20  1  0
  7 21  1  0
  8  9  1  0
  8 11  1  0
  8 16  1  0
 10 16  1  0
 10 18  1  0
 12 18  1  0
 14 19  1  0
 15 17  1  0
M  END
$$$$
