
     RDKit          3D

 25 27  0  0  0  0  0  0  0  0999 V2000
   20.1403   23.7043   21.4596 C   0  0  0  0  0  0  0  0  0  0  0  0
   19.2340   23.4074   20.6482 O   0  0  0  0  0  0  0  0  0  0  0  0
   23.8671   22.9926   16.3689 C   0  0  0  0  0  0  0  0  0  0  0  0
   24.4145   21.0840   17.8218 C   0  0  0  0  0  0  0  0  0  0  0  0
   22.6697   20.5645   22.7982 O   0  0  0  0  0  0  0  0  0  0  0  0
   22.5538   23.6074   19.8136 C   0  0  0  0  0  0  0  0  0  0  0  0
   23.7834   28.6417   19.7821 C   0  0  0  0  0  0  0  0  0  0  0  0
   19.9597   23.7713   22.6872 O   0  0  0  0  0  0  0  0  0  0  0  0
   23.5406   24.9104   17.9817 C   0  0  0  0  0  0  0  0  0  0  0  0
   23.4074   27.5077   19.0732 O   0  0  0  0  0  0  0  0  0  0  0  0
   23.0102   23.6298   17.4238 C   0  0  0  0  0  0  0  0  0  0  0  0
   23.0073   20.9225   19.9450 N   0  0  0  0  0  0  0  0  0  0  0  0
   21.7396   19.1725   21.0729 C   0  0  0  0  0  0  0  0  0  0  0  0
   21.6231   17.8835   20.6750 O   0  0  0  0  0  0  0  0  0  0  0  0
   23.0230   25.7958   20.5649 C   0  0  0  0  0  0  0  0  0  0  0  0
   23.2251   27.2175   20.4461 C   0  0  0  0  0  0  0  0  0  0  0  0
   22.1159   25.2207   21.5691 C   0  0  0  0  0  0  0  0  0  0  0  0
   23.1537   27.6388   21.7484 O   0  0  0  0  0  0  0  0  0  0  0  0
   25.0613   22.2761   17.0583 C   0  0  0  0  0  0  0  0  0  0  0  0
   23.1001   24.9689   19.3942 C   0  0  0  0  0  0  0  0  0  0  0  0
   21.7680   20.0969   19.8764 C   0  0  0  0  0  0  0  0  0  0  0  0
   23.2958   21.4996   18.7107 C   0  0  0  0  0  0  0  0  0  0  0  0
   22.9907   19.3923   21.9541 C   0  0  0  0  0  0  0  0  0  0  0  0
   21.5557   23.9282   20.9273 C   0  0  0  0  0  0  0  0  0  0  0  0
   22.7164   22.8082   18.6093 C   0  0  0  0  0  0  0  0  0  0  0  0
  1  2  2  0
  1  8  1  0
  1 24  1  0
  3 11  1  0
  3 19  1  0
  4 19  1  0
  4 22  1  0
  5 23  1  0
  6 20  1  0
  6 24  1  0
  6 25  1  0
  7 10  1  0
  9 11  1  0
  9 20  1  0
 10 16  1  0
 11 25  1  0
 12 21  1  0
 12 22  1  0
 13 14  1  0
 13 21  1  0
 13 23  1  0
 15 16  1  0
 15 17  1  0
 15 20  1  0
 16 18  2  0
 17 24  1  0
 22 25  1  0
M  END
$$$$
