
     RDKit          3D

 31 33  0  0  0  0  0  0  0  0999 V2000
   23.0968   23.6916   18.3661 C   0  0  0  0  0  0  0  0  0  0  0  0
   21.3234   21.9897   20.6949 C   0  0  0  0  0  0  0  0  0  0  0  0
   21.1152   25.1890   23.5476 O   0  0  0  0  0  0  0  0  0  0  0  0
   22.4486   20.0934   19.3800 C   0  0  0  0  0  0  0  0  0  0  0  0
   22.4093   18.1118   20.8510 C   0  0  0  0  0  0  0  0  0  0  0  0
   26.8472   19.6299   21.1090 C   0  0  0  0  0  0  0  0  0  0  0  0
   22.4814   24.1509   17.2230 C   0  0  0  0  0  0  0  0  0  0  0  0
   26.9990   21.9583   21.6057 N   0  0  0  0  0  0  0  0  0  0  0  0
   23.6286   26.2768   17.4895 C   0  0  0  0  0  0  0  0  0  0  0  0
   24.1455   24.2546   21.5921 N   0  0  0  0  0  0  0  0  0  0  0  0
   19.1444   22.4889   19.6218 C   0  0  0  0  0  0  0  0  0  0  0  0
   23.2501   18.9473   19.9253 C   0  0  0  0  0  0  0  0  0  0  0  0
   23.1143   24.2400   22.5342 C   0  0  0  0  0  0  0  0  0  0  0  0
   21.2741   20.6440   20.1007 C   0  0  0  0  0  0  0  0  0  0  0  0
   25.3610   23.6472   21.0625 C   0  0  0  0  0  0  0  0  0  0  0  0
   25.0343   21.1353   20.6229 C   0  0  0  0  0  0  0  0  0  0  0  0
   18.8490   24.4181   21.7051 O   0  0  0  0  0  0  0  0  0  0  0  0
   21.9017   25.1166   22.4114 C   0  0  0  0  0  0  0  0  0  0  0  0
   23.0407   23.0411   23.1998 O   0  0  0  0  0  0  0  0  0  0  0  0
   24.2183   25.8378   18.6789 C   0  0  0  0  0  0  0  0  0  0  0  0
   19.9590   24.0233   21.3136 C   0  0  0  0  0  0  0  0  0  0  0  0
   27.5093   20.7126   21.6062 C   0  0  0  0  0  0  0  0  0  0  0  0
   20.0082   22.6571   20.8097 C   0  0  0  0  0  0  0  0  0  0  0  0
   25.7391   22.2155   21.0911 C   0  0  0  0  0  0  0  0  0  0  0  0
   23.9049   24.5421   19.1389 C   0  0  0  0  0  0  0  0  0  0  0  0
   24.7127   18.6974   20.0735 C   0  0  0  0  0  0  0  0  0  0  0  0
   25.5193   19.8502   20.5845 C   0  0  0  0  0  0  0  0  0  0  0  0
   21.0845   24.8088   21.2268 O   0  0  0  0  0  0  0  0  0  0  0  0
   20.1418   20.0151   20.2331 O   0  0  0  0  0  0  0  0  0  0  0  0
   22.7233   25.4533   16.7756 C   0  0  0  0  0  0  0  0  0  0  0  0
   24.4220   24.1456   20.4016 C   0  0  0  0  0  0  0  0  0  0  0  0
  1  7  1  0
  1 25  2  0
  2 14  1  0
  2 23  1  0
  3 18  1  0
  4 12  1  0
  4 14  1  0
  5 12  1  0
  6 22  1  0
  6 27  2  0
  7 30  2  0
  8 22  2  0
  8 24  1  0
  9 20  2  0
  9 30  1  0
 10 13  1  0
 10 31  1  0
 11 23  1  0
 12 26  1  0
 13 18  1  0
 13 19  2  0
 14 29  1  0
 15 24  2  3
 15 31  1  0
 16 24  1  0
 16 27  1  0
 17 21  2  0
 18 28  1  0
 20 25  1  0
 21 23  1  0
 21 28  1  0
 25 31  1  0
 26 27  1  0
M  END
$$$$
