
     RDKit          3D

 31 34  0  0  0  0  0  0  0  0999 V2000
   22.3162   19.6558   21.7825 C   0  0  0  0  0  0  0  0  0  0  0  0
   19.4566   22.4705   20.1026 O   0  0  0  0  0  0  0  0  0  0  0  0
   19.5555   23.3197   21.1532 C   0  0  0  0  0  0  0  0  0  0  0  0
   25.0429   23.2430   18.6906 C   0  0  0  0  0  0  0  0  0  0  0  0
   21.7552   23.6273   22.1429 C   0  0  0  0  0  0  0  0  0  0  0  0
   21.5430   18.1425   20.1661 O   0  0  0  0  0  0  0  0  0  0  0  0
   25.7123   24.5065   18.8429 C   0  0  0  0  0  0  0  0  0  0  0  0
   22.8092   27.3074   21.9281 C   0  0  0  0  0  0  0  0  0  0  0  0
   21.5065   23.8211   15.9703 C   0  0  0  0  0  0  0  0  0  0  0  0
   21.7965   24.9492   21.8351 N   0  0  0  0  0  0  0  0  0  0  0  0
   23.4083   21.7215   22.0298 N   0  0  0  0  0  0  0  0  0  0  0  0
   22.4941   19.1807   20.2472 C   0  0  0  0  0  0  0  0  0  0  0  0
   23.2139   26.3062   20.3561 N   0  0  0  0  0  0  0  0  0  0  0  0
   22.7719   22.6264   17.7656 C   0  0  0  0  0  0  0  0  0  0  0  0
   24.9063   25.5336   18.2252 N   0  0  0  0  0  0  0  0  0  0  0  0
   23.8198   23.5318   17.9607 C   0  0  0  0  0  0  0  0  0  0  0  0
   22.8896   25.6004   16.7951 C   0  0  0  0  0  0  0  0  0  0  0  0
   23.7932   24.9014   17.6266 C   0  0  0  0  0  0  0  0  0  0  0  0
   23.3191   27.7567   20.5457 C   0  0  0  0  0  0  0  0  0  0  0  0
   24.2180   23.7950   22.6113 N   0  0  0  0  0  0  0  0  0  0  0  0
   23.0942   23.0054   22.3250 C   0  0  0  0  0  0  0  0  0  0  0  0
   22.9855   25.7231   21.7484 C   0  0  0  0  0  0  0  0  0  0  0  0
   21.7850   22.8260   16.8026 C   0  0  0  0  0  0  0  0  0  0  0  0
   23.6765   20.3920   22.0835 C   0  0  0  0  0  0  0  0  0  0  0  0
   23.9316   18.6907   19.8411 C   0  0  0  0  0  0  0  0  0  0  0  0
   20.4527   22.9464   22.1450 N   0  0  0  0  0  0  0  0  0  0  0  0
   22.7674   21.4528   18.6563 C   0  0  0  0  0  0  0  0  0  0  0  0
   21.9377   25.1170   15.9986 N   0  0  0  0  0  0  0  0  0  0  0  0
   22.0059   20.2857   19.2719 C   0  0  0  0  0  0  0  0  0  0  0  0
   18.8065   24.2623   21.3369 O   0  0  0  0  0  0  0  0  0  0  0  0
   24.1375   25.1172   22.3428 C   0  0  0  0  0  0  0  0  0  0  0  0
  1 12  1  0
  1 24  1  0
  2  3  2  0
  3 26  1  0
  3 30  1  0
  4  7  1  0
  4 16  1  0
  5 10  2  0
  5 21  1  0
  5 26  1  0
  6 12  1  0
  7 15  1  0
  8 19  1  0
  8 22  1  0
  9 23  1  0
  9 28  2  0
 10 22  1  0
 11 21  2  3
 11 24  1  0
 12 25  1  0
 12 29  1  0
 13 19  1  0
 13 22  1  0
 14 16  1  0
 14 23  2  0
 14 27  1  0
 15 18  1  0
 16 18  1  0
 17 18  2  0
 17 28  1  0
 20 21  1  0
 20 31  2  0
 22 31  1  0
 27 29  2  3
M  END
$$$$
