
     RDKit          3D

 23 25  0  0  0  0  0  0  0  0999 V2000
   22.6218   21.7220   22.1504 C   0  0  0  0  0  0  0  0  0  0  0  0
   26.5890   24.0448   17.1616 C   0  0  0  0  0  0  0  0  0  0  0  0
   18.8428   24.5499   21.4062 O   0  0  0  0  0  0  0  0  0  0  0  0
   24.0017   22.5521   18.6567 C   0  0  0  0  0  0  0  0  0  0  0  0
   22.1180   23.5701   17.4872 C   0  0  0  0  0  0  0  0  0  0  0  0
   24.1394   21.7190   20.0214 C   0  0  0  0  0  0  0  0  0  0  0  0
   23.0178   20.4095   22.7181 C   0  0  0  0  0  0  0  0  0  0  0  0
   22.8133   19.2463   20.4289 C   0  0  0  0  0  0  0  0  0  0  0  0
   23.1325   22.9940   16.3736 C   0  0  0  0  0  0  0  0  0  0  0  0
   20.1997   24.2477   21.5537 C   0  0  0  0  0  0  0  0  0  0  0  0
   20.6772   23.2879   20.5692 C   0  0  0  0  0  0  0  0  0  0  0  0
   24.5517   25.2858   17.6293 O   0  0  0  0  0  0  0  0  0  0  0  0
   27.0635   22.6819   17.4450 C   0  0  0  0  0  0  0  0  0  0  0  0
   23.6397   19.4442   21.7010 C   0  0  0  0  0  0  0  0  0  0  0  0
   22.0363   22.9881   20.0905 C   0  0  0  0  0  0  0  0  0  0  0  0
   19.7200   22.5223   19.9946 O   0  0  0  0  0  0  0  0  0  0  0  0
   24.4373   22.8684   17.2053 C   0  0  0  0  0  0  0  0  0  0  0  0
   22.4400   22.7484   18.6810 C   0  0  0  0  0  0  0  0  0  0  0  0
   22.3568   22.9591   22.9498 C   0  0  0  0  0  0  0  0  0  0  0  0
   22.7136   21.6991   20.6365 C   0  0  0  0  0  0  0  0  0  0  0  0
   22.0005   20.4546   20.0573 C   0  0  0  0  0  0  0  0  0  0  0  0
   27.2740   25.0997   17.4319 O   0  0  0  0  0  0  0  0  0  0  0  0
   25.1544   24.2001   17.0864 C   0  0  0  0  0  0  0  0  0  0  0  0
  1  7  1  0
  1 19  1  0
  1 20  1  0
  2 13  1  0
  2 22  1  0
  2 23  1  0
  3 10  1  0
  4  6  1  0
  4 17  1  0
  4 18  1  0
  5  9  1  0
  5 18  1  0
  6 20  1  0
  7 14  1  0
  8 14  1  0
  8 21  1  0
  9 17  1  0
 10 11  1  0
 11 15  1  0
 11 16  1  0
 12 23  1  0
 15 18  1  0
 15 20  1  0
 17 23  1  0
 20 21  1  0
M  END
$$$$
