
     RDKit          3D

 15 15  0  0  0  0  0  0  0  0999 V2000
   -8.3942    3.4544  -30.2110 C   0  0  0  0  0  0  0  0  0  0  0  0
  -10.5445    2.7272  -31.5931 O   0  0  0  0  0  0  0  0  0  0  0  0
   -7.7422    5.7115  -30.4675 O   0  0  0  0  0  0  0  0  0  0  0  0
   -7.5064    3.4355  -33.1029 O   0  0  0  0  0  0  0  0  0  0  0  0
   -8.3369    6.1216  -27.4864 C   0  0  0  0  0  0  0  0  0  0  0  0
  -10.6616    3.8927  -29.4968 C   0  0  0  0  0  0  0  0  0  0  0  0
   -8.3542    1.2106  -32.5520 O   0  0  0  0  0  0  0  0  0  0  0  0
   -8.0041    7.2756  -28.1974 O   0  0  0  0  0  0  0  0  0  0  0  0
   -8.7392    4.9412  -28.3855 C   0  0  0  0  0  0  0  0  0  0  0  0
   -7.8545    4.6679  -29.5865 C   0  0  0  0  0  0  0  0  0  0  0  0
   -7.4818    2.4837  -30.5872 O   0  0  0  0  0  0  0  0  0  0  0  0
   -7.3022    2.2214  -32.1728 P   0  0  0  0  0  0  0  0  0  0  0  0
   -5.8694    1.7574  -32.3095 O   0  0  0  0  0  0  0  0  0  0  0  0
   -9.7880    3.4602  -30.6546 C   0  0  0  0  0  0  0  0  0  0  0  0
  -10.0987    4.9963  -28.7895 O   0  0  0  0  0  0  0  0  0  0  0  0
  1 10  1  0
  1 11  1  0
  1 14  1  0
  2 14  1  0
  3 10  1  0
  4 12  1  0
  5  8  1  0
  5  9  1  0
  6 14  1  0
  6 15  1  0
  7 12  1  0
  9 10  1  0
  9 15  1  0
 11 12  1  0
 12 13  1  0
M  END
$$$$
