
     RDKit          3D

 31 32  0  0  0  0  0  0  0  0999 V2000
   31.7240   33.4628  102.8379 C   0  0  0  0  0  0  0  0  0  0  0  0
   22.3292   31.7903  105.2219 C   0  0  0  0  0  0  0  0  0  0  0  0
   28.5867   34.7926  103.9755 C   0  0  0  0  0  0  0  0  0  0  0  0
   22.2061   34.4314  106.2187 C   0  0  0  0  0  0  0  0  0  0  0  0
   32.0772   34.0272  105.1580 C   0  0  0  0  0  0  0  0  0  0  0  0
   27.7157   34.4180  105.0879 C   0  0  0  0  0  0  0  0  0  0  0  0
   28.1259   35.0739  102.5356 C   0  0  0  0  0  0  0  0  0  0  0  0
   25.5476   34.0341  107.9524 O   0  0  0  0  0  0  0  0  0  0  0  0
   32.3207   32.9702  105.9328 F   0  0  0  0  0  0  0  0  0  0  0  0
   32.7671   34.9840  105.4504 F   0  0  0  0  0  0  0  0  0  0  0  0
   32.0860   34.0176  101.6130 O   0  0  0  0  0  0  0  0  0  0  0  0
   20.8964   33.7006  106.3015 N   0  0  0  0  0  0  0  0  0  0  0  0
   30.5828   32.7100  102.8103 O   0  0  0  0  0  0  0  0  0  0  0  0
   26.7366   35.0999  102.4667 C   0  0  0  0  0  0  0  0  0  0  0  0
   25.5507   35.8675  101.2206 C   0  0  0  0  0  0  0  0  0  0  0  0
   30.6406   34.2492  105.0919 C   0  0  0  0  0  0  0  0  0  0  0  0
   30.1040   34.8690  104.2240 C   0  0  0  0  0  0  0  0  0  0  0  0
   26.3035   35.7376   99.9942 O   0  0  0  0  0  0  0  0  0  0  0  0
   20.0043   34.5185  105.8221 C   0  0  0  0  0  0  0  0  0  0  0  0
   30.5526   36.1720  103.6684 O   0  0  0  0  0  0  0  0  0  0  0  0
   23.5981   32.4606  105.3271 C   0  0  0  0  0  0  0  0  0  0  0  0
   20.9129   32.3939  105.8328 C   0  0  0  0  0  0  0  0  0  0  0  0
   23.4755   33.4838  106.6079 C   0  0  0  0  0  0  0  0  0  0  0  0
   20.0560   31.4735  106.0674 O   0  0  0  0  0  0  0  0  0  0  0  0
   25.0079   36.9928  101.4028 O   0  0  0  0  0  0  0  0  0  0  0  0
   26.4006   34.5153  104.6881 C   0  0  0  0  0  0  0  0  0  0  0  0
   25.8163   34.8629  103.5169 C   0  0  0  0  0  0  0  0  0  0  0  0
   30.2055   34.2199  106.3410 F   0  0  0  0  0  0  0  0  0  0  0  0
   24.8843   34.1235  106.7852 C   0  0  0  0  0  0  0  0  0  0  0  0
   25.5344   34.4120  105.7407 N   0  0  0  0  0  0  0  0  0  0  0  0
   32.5164   33.3820  103.7734 C   0  0  0  0  0  0  0  0  0  0  0  0
  1 11  2  0
  1 13  1  0
  1 31  1  0
  2 21  1  0
  2 22  1  0
  3  6  1  0
  3  7  1  0
  3 17  1  0
  4 12  1  0
  4 23  1  0
  5  9  1  0
  5 10  1  0
  5 16  1  0
  5 31  1  0
  6 26  1  0
  7 14  1  0
  8 29  2  0
 12 19  1  0
 12 22  1  0
 14 15  1  0
 14 27  1  0
 15 18  1  0
 15 25  1  0
 16 17  1  0
 16 28  1  0
 17 20  1  0
 21 23  1  0
 22 24  2  0
 23 29  1  0
 26 27  1  0
 26 30  1  0
 29 30  1  0
M  END
$$$$
