
     RDKit          3D

 26 28  0  0  0  0  0  0  0  0999 V2000
   25.0691   34.6021  103.2111 C   0  0  0  0  0  0  0  0  0  0  0  0
   29.6706   36.8871  103.5854 O   0  0  0  0  0  0  0  0  0  0  0  0
   27.1833   35.4907  103.5379 C   0  0  0  0  0  0  0  0  0  0  0  0
   23.1772   34.1242  107.6541 O   0  0  0  0  0  0  0  0  0  0  0  0
   23.7566   33.6720  104.7683 C   0  0  0  0  0  0  0  0  0  0  0  0
   25.3211   34.7299  108.1777 O   0  0  0  0  0  0  0  0  0  0  0  0
   25.4144   35.2930  102.1088 C   0  0  0  0  0  0  0  0  0  0  0  0
   28.5146   33.5057  103.7964 C   0  0  0  0  0  0  0  0  0  0  0  0
   32.2791   34.0978  105.4636 C   0  0  0  0  0  0  0  0  0  0  0  0
   26.7559   35.9354  102.2325 N   0  0  0  0  0  0  0  0  0  0  0  0
   29.7526   35.6012  103.7598 C   0  0  0  0  0  0  0  0  0  0  0  0
   30.8522   34.7689  103.9754 N   0  0  0  0  0  0  0  0  0  0  0  0
   23.3262   36.5492   99.5097 N   0  0  0  0  0  0  0  0  0  0  0  0
   24.4077   36.5061  100.5129 C   0  0  0  0  0  0  0  0  0  0  0  0
   26.1318   34.7209  104.0667 C   0  0  0  0  0  0  0  0  0  0  0  0
   24.6732   34.2131  105.7754 C   0  0  0  0  0  0  0  0  0  0  0  0
   31.7429   34.0383  103.3912 C   0  0  0  0  0  0  0  0  0  0  0  0
   28.5249   34.7425  103.9192 C   0  0  0  0  0  0  0  0  0  0  0  0
   23.9387   34.0105  103.4974 C   0  0  0  0  0  0  0  0  0  0  0  0
   30.9528   34.4470  105.1877 C   0  0  0  0  0  0  0  0  0  0  0  0
   24.6558   35.2767  101.1837 O   0  0  0  0  0  0  0  0  0  0  0  0
   25.9863   34.5997  105.3571 C   0  0  0  0  0  0  0  0  0  0  0  0
   31.8930   33.7921  102.0150 O   0  0  0  0  0  0  0  0  0  0  0  0
   24.3870   34.2459  107.2865 C   0  0  0  0  0  0  0  0  0  0  0  0
   32.6583   33.6846  104.0526 N   0  0  0  0  0  0  0  0  0  0  0  0
   24.9813   37.6800  101.0706 N   0  0  0  0  0  0  0  0  0  0  0  0
  1  7  2  0
  1 15  1  0
  1 19  1  0
  2 11  2  0
  3 10  1  0
  3 15  1  0
  3 18  1  0
  4 24  2  0
  5 16  1  0
  5 19  2  0
  6 24  1  0
  7 10  1  0
  7 21  1  0
  8 18  2  0
  9 20  1  0
  9 25  1  0
 11 12  1  0
 11 18  1  0
 12 17  1  0
 12 20  1  0
 13 14  2  0
 14 21  1  0
 14 26  1  0
 15 22  1  0
 16 22  1  0
 16 24  1  0
 17 23  2  0
 17 25  1  0
M  END
$$$$
