
     RDKit          3D

 25 26  0  0  0  0  0  0  0  0999 V2000
    6.1192   -1.3194    1.3027 C   0  0  0  0  0  0  0  0  0  0  0  0
    2.2765    0.3266    0.5175 C   0  0  0  0  0  0  0  0  0  0  0  0
    8.5438   -1.3663    1.1561 C   0  0  0  0  0  0  0  0  0  0  0  0
    3.3979    2.3479    1.0435 C   0  0  0  0  0  0  0  0  0  0  0  0
    2.0696   -1.0364    0.4959 O   0  0  0  0  0  0  0  0  0  0  0  0
    5.6801    3.3412    3.7538 P   0  0  0  0  0  0  0  0  0  0  0  0
    4.9563    4.3865    2.8436 O   0  0  0  0  0  0  0  0  0  0  0  0
    2.4183    3.0675    0.4716 C   0  0  0  0  0  0  0  0  0  0  0  0
    4.7532   -2.8207    3.3012 C   0  0  0  0  0  0  0  0  0  0  0  0
    7.2378    3.6055    3.7929 O   0  0  0  0  0  0  0  0  0  0  0  0
    3.8525   -2.0004    2.4735 C   0  0  0  0  0  0  0  0  0  0  0  0
    0.1311    0.5931   -0.3773 O   0  0  0  0  0  0  0  0  0  0  0  0
    6.1388   -0.1000    1.6881 C   0  0  0  0  0  0  0  0  0  0  0  0
    4.5824    0.1887    1.5224 N   0  0  0  0  0  0  0  0  0  0  0  0
    3.4050    0.9555    1.0433 C   0  0  0  0  0  0  0  0  0  0  0  0
    1.2646    2.4605    0.0110 N   0  0  0  0  0  0  0  0  0  0  0  0
    5.3576    1.9044    3.2701 O   0  0  0  0  0  0  0  0  0  0  0  0
    5.1552    3.3442    5.1813 O   0  0  0  0  0  0  0  0  0  0  0  0
    5.0200   -4.0911    2.6641 O   0  0  0  0  0  0  0  0  0  0  0  0
    4.4737   -1.4273    1.1628 C   0  0  0  0  0  0  0  0  0  0  0  0
    7.3343   -1.9776    1.0289 C   0  0  0  0  0  0  0  0  0  0  0  0
    8.5890   -0.0262    1.6431 C   0  0  0  0  0  0  0  0  0  0  0  0
    7.3995    0.5804    1.9540 C   0  0  0  0  0  0  0  0  0  0  0  0
    0.0766    3.1883   -0.3967 C   0  0  0  0  0  0  0  0  0  0  0  0
    1.2138    1.1099    0.0207 C   0  0  0  0  0  0  0  0  0  0  0  0
  1 13  1  0
  1 20  1  0
  1 21  2  0
  2  5  1  0
  2 15  2  0
  2 25  1  0
  3 21  1  0
  3 22  2  0
  4  8  2  0
  4 15  1  0
  6  7  1  0
  6 10  1  0
  6 17  1  0
  6 18  1  0
  8 16  1  0
  9 11  1  0
  9 19  1  0
 11 20  1  0
 12 25  2  0
 13 14  1  0
 13 23  2  0
 14 15  1  0
 14 20  1  0
 16 24  1  0
 16 25  1  0
 22 23  1  0
M  END
$$$$
