
     RDKit          3D

 23 25  0  0  0  0  0  0  0  0999 V2000
    1.3505    2.3522    0.1110 C   0  0  0  0  0  0  0  0  0  0  0  0
    2.5455    2.7069    0.6664 C   0  0  0  0  0  0  0  0  0  0  0  0
    6.8795    2.5680    2.1008 O   0  0  0  0  0  0  0  0  0  0  0  0
    4.4059    3.1852    4.4342 O   0  0  0  0  0  0  0  0  0  0  0  0
    4.7377    4.6942    1.6953 O   0  0  0  0  0  0  0  0  0  0  0  0
   -0.2280    0.7870   -0.3238 O   0  0  0  0  0  0  0  0  0  0  0  0
    7.7712   -2.4967    1.6927 C   0  0  0  0  0  0  0  0  0  0  0  0
    6.5214   -2.8930    2.1240 C   0  0  0  0  0  0  0  0  0  0  0  0
    0.4033    3.3113   -0.3048 N   0  0  0  0  0  0  0  0  0  0  0  0
    5.0543    3.8478    3.1793 P   0  0  0  0  0  0  0  0  0  0  0  0
    5.7089    4.8918    3.9263 O   0  0  0  0  0  0  0  0  0  0  0  0
    1.0396    1.0197   -0.0438 C   0  0  0  0  0  0  0  0  0  0  0  0
    4.6280    1.6154    1.7849 N   0  0  0  0  0  0  0  0  0  0  0  0
    1.9836   -0.0069    0.2820 C   0  0  0  0  0  0  0  0  0  0  0  0
    8.0855   -1.1598    1.5561 C   0  0  0  0  0  0  0  0  0  0  0  0
    4.6212    0.2110    1.5688 C   0  0  0  0  0  0  0  0  0  0  0  0
    3.2135    0.3800    0.8838 C   0  0  0  0  0  0  0  0  0  0  0  0
    5.5596    2.3588    2.3399 C   0  0  0  0  0  0  0  0  0  0  0  0
    5.4885   -1.9992    2.1193 C   0  0  0  0  0  0  0  0  0  0  0  0
    5.7238   -0.6494    1.7992 C   0  0  0  0  0  0  0  0  0  0  0  0
    3.4314    1.7457    1.1208 C   0  0  0  0  0  0  0  0  0  0  0  0
    7.0595   -0.2673    1.6699 C   0  0  0  0  0  0  0  0  0  0  0  0
    8.9734   -3.6944    1.2551 Cl  0  0  0  0  0  0  0  0  0  0  0  0
  1  2  2  0
  1  9  1  0
  1 12  1  0
  2 21  1  0
  3 18  2  0
  4 10  1  0
  5 10  1  0
  6 12  1  0
  7  8  1  0
  7 15  1  0
  7 23  1  0
  8 19  2  0
 10 11  1  0
 10 18  1  0
 12 14  2  0
 13 16  1  0
 13 18  1  0
 13 21  1  0
 14 17  1  0
 15 22  2  0
 16 17  1  0
 16 20  1  0
 17 21  2  0
 19 20  1  0
 20 22  1  0
M  END
$$$$
