
     RDKit          3D

 27 28  0  0  0  0  0  0  0  0999 V2000
    3.1634    2.1847    1.3303 S   0  0  0  0  0  0  0  0  0  0  0  0
    8.5198   -1.8219    1.8408 C   0  0  0  0  0  0  0  0  0  0  0  0
    5.6206    0.9345    4.1963 C   0  0  0  0  0  0  0  0  0  0  0  0
    9.0396   -0.4910    1.2555 C   0  0  0  0  0  0  0  0  0  0  0  0
    0.0986    2.2966   -0.6019 O   0  0  0  0  0  0  0  0  0  0  0  0
    7.0185   -1.9962    2.0106 C   0  0  0  0  0  0  0  0  0  0  0  0
    4.9012    3.2263    4.9193 C   0  0  0  0  0  0  0  0  0  0  0  0
    9.0101   -2.2293   -0.4936 C   0  0  0  0  0  0  0  0  0  0  0  0
    2.2648    3.0050    0.2799 C   0  0  0  0  0  0  0  0  0  0  0  0
    2.9712    4.0118   -0.2144 O   0  0  0  0  0  0  0  0  0  0  0  0
    3.0795    0.6412    0.6615 C   0  0  0  0  0  0  0  0  0  0  0  0
   10.9292   -0.5781   -0.3730 C   0  0  0  0  0  0  0  0  0  0  0  0
    5.7868   -3.3543    3.8951 C   0  0  0  0  0  0  0  0  0  0  0  0
    1.8192    0.7202   -0.1323 C   0  0  0  0  0  0  0  0  0  0  0  0
    9.0036   -2.9825    0.8446 C   0  0  0  0  0  0  0  0  0  0  0  0
    4.7876   -1.2818    0.9042 C   0  0  0  0  0  0  0  0  0  0  0  0
    3.4408   -2.0127    2.8783 O   0  0  0  0  0  0  0  0  0  0  0  0
    6.5874    1.6166    3.1422 C   0  0  0  0  0  0  0  0  0  0  0  0
    4.5542   -1.9100    2.2233 C   0  0  0  0  0  0  0  0  0  0  0  0
    5.8643   -2.1255    2.9990 C   0  0  0  0  0  0  0  0  0  0  0  0
    1.2855   -0.3432   -0.2375 O   0  0  0  0  0  0  0  0  0  0  0  0
    7.0890    2.9904    3.6744 C   0  0  0  0  0  0  0  0  0  0  0  0
    9.4219   -0.7746   -0.2177 C   0  0  0  0  0  0  0  0  0  0  0  0
    1.5260    2.0830   -0.4930 N   0  0  0  0  0  0  0  0  0  0  0  0
    5.7277    3.8353    3.8171 C   0  0  0  0  0  0  0  0  0  0  0  0
    3.8612   -0.5288    0.1376 C   0  0  0  0  0  0  0  0  0  0  0  0
    5.3841    1.8473    5.4437 C   0  0  0  0  0  0  0  0  0  0  0  0
  1  9  1  0
  1 11  1  0
  2  4  1  0
  2  6  1  0
  2 15  1  0
  3 18  1  0
  3 27  1  0
  4 23  1  0
  5 24  1  0
  6 20  1  0
  7 25  1  0
  7 27  1  0
  8 15  1  0
  8 23  1  0
  9 10  1  0
  9 24  1  0
 11 14  1  0
 11 26  1  0
 12 23  1  0
 13 20  1  0
 14 21  2  0
 14 24  1  0
 16 19  1  0
 16 26  1  0
 17 19  1  0
 18 22  1  0
 19 20  1  0
 22 25  1  0
M  END
$$$$
