
     RDKit          3D

 25 24  0  0  0  0  0  0  0  0999 V2000
    5.5705   -0.1890    3.1649 C   0  0  0  0  0  0  0  0  0  0  0  0
   10.3612    1.4551    0.1595 O   0  0  0  0  0  0  0  0  0  0  0  0
    1.9072    1.9210    0.4477 C   0  0  0  0  0  0  0  0  0  0  0  0
   10.9952   -0.8829    0.3151 O   0  0  0  0  0  0  0  0  0  0  0  0
    0.7329    2.3952   -0.2574 C   0  0  0  0  0  0  0  0  0  0  0  0
    6.4855   -0.9031    2.1099 C   0  0  0  0  0  0  0  0  0  0  0  0
    8.7483   -0.1330    0.9169 O   0  0  0  0  0  0  0  0  0  0  0  0
    8.2556   -3.7011    2.0862 S   0  0  0  0  0  0  0  0  0  0  0  0
    8.4012   -1.6041    0.7354 C   0  0  0  0  0  0  0  0  0  0  0  0
    2.9700    2.8741    0.9439 C   0  0  0  0  0  0  0  0  0  0  0  0
    1.8704   -1.5482    1.0004 O   0  0  0  0  0  0  0  0  0  0  0  0
    0.0806    3.6358   -0.1435 O   0  0  0  0  0  0  0  0  0  0  0  0
    5.7509    1.3855    3.2990 C   0  0  0  0  0  0  0  0  0  0  0  0
    1.8862   -0.5531   -0.0331 C   0  0  0  0  0  0  0  0  0  0  0  0
    3.1185    3.9378    0.1846 O   0  0  0  0  0  0  0  0  0  0  0  0
    3.8684    2.1950    1.7551 N   0  0  0  0  0  0  0  0  0  0  0  0
    5.1144    4.2840    4.2547 O   0  0  0  0  0  0  0  0  0  0  0  0
    5.9835   -0.6525    0.8203 O   0  0  0  0  0  0  0  0  0  0  0  0
    5.1318    4.5324    1.8546 O   0  0  0  0  0  0  0  0  0  0  0  0
    4.7392    2.3547    2.8506 C   0  0  0  0  0  0  0  0  0  0  0  0
    5.0422    3.8466    3.0073 C   0  0  0  0  0  0  0  0  0  0  0  0
   10.1207    0.1499    0.4264 P   0  0  0  0  0  0  0  0  0  0  0  0
    7.5468   -2.0827    1.9639 C   0  0  0  0  0  0  0  0  0  0  0  0
    3.0433   -1.9999    1.5396 C   0  0  0  0  0  0  0  0  0  0  0  0
    2.6566    0.5857    0.3279 C   0  0  0  0  0  0  0  0  0  0  0  0
  1  6  1  0
  1 13  1  0
  2 22  1  0
  3  5  1  0
  3 10  1  0
  3 25  1  0
  4 22  1  0
  5 12  1  0
  6 18  1  0
  6 23  1  0
  7  9  1  0
  7 22  1  0
  8 23  1  0
  9 23  1  0
 10 15  2  0
 10 16  1  0
 11 14  1  0
 11 24  1  0
 13 20  1  0
 14 25  1  0
 16 20  1  0
 17 21  2  0
 19 21  1  0
 20 21  1  0
M  END
$$$$
