
     RDKit          3D

 35 36  0  0  0  0  0  0  0  0999 V2000
    2.7388    2.8656    0.7815 C   0  0  0  0  0  0  0  0  0  0  0  0
    5.0220    5.0958    3.1206 O   0  0  0  0  0  0  0  0  0  0  0  0
    4.3297   -1.1724    1.9466 C   0  0  0  0  0  0  0  0  0  0  0  0
    1.9681   -1.4923    0.9074 N   0  0  0  0  0  0  0  0  0  0  0  0
    2.7720   -0.6303    0.3179 C   0  0  0  0  0  0  0  0  0  0  0  0
    7.5474    0.1121    4.1542 C   0  0  0  0  0  0  0  0  0  0  0  0
    4.1209   -0.7836    0.6256 C   0  0  0  0  0  0  0  0  0  0  0  0
    6.8294    3.4399    2.8130 O   0  0  0  0  0  0  0  0  0  0  0  0
    1.2616    1.3183   -0.3429 C   0  0  0  0  0  0  0  0  0  0  0  0
    5.6371    3.8858    3.6236 P   0  0  0  0  0  0  0  0  0  0  0  0
    5.2542    3.5970    4.9710 O   0  0  0  0  0  0  0  0  0  0  0  0
    5.3957   -0.3219    2.7168 C   0  0  0  0  0  0  0  0  0  0  0  0
    0.2137    3.3681   -0.2830 N   0  0  0  0  0  0  0  0  0  0  0  0
    6.4949    1.2529    4.3627 N   0  0  0  0  0  0  0  0  0  0  0  0
    1.3874   -3.0275    2.4607 N   0  0  0  0  0  0  0  0  0  0  0  0
    7.8740   -0.9142    1.9528 C   0  0  0  0  0  0  0  0  0  0  0  0
    8.9311   -3.1613    1.3038 C   0  0  0  0  0  0  0  0  0  0  0  0
    2.2874    0.4710   -0.3699 C   0  0  0  0  0  0  0  0  0  0  0  0
    8.5866    0.5180    6.6118 O   0  0  0  0  0  0  0  0  0  0  0  0
    5.0059   -0.6133   -0.2665 O   0  0  0  0  0  0  0  0  0  0  0  0
    8.1707   -2.5904    3.7743 C   0  0  0  0  0  0  0  0  0  0  0  0
    8.4807    2.8281    5.6220 O   0  0  0  0  0  0  0  0  0  0  0  0
    5.2398    1.0483    3.4360 C   0  0  0  0  0  0  0  0  0  0  0  0
    3.5881    4.0339    0.8290 N   0  0  0  0  0  0  0  0  0  0  0  0
    8.7224   -1.6412    0.9326 C   0  0  0  0  0  0  0  0  0  0  0  0
    3.4712   -2.0544    2.5296 N   0  0  0  0  0  0  0  0  0  0  0  0
    8.3196   -1.0773    3.4119 C   0  0  0  0  0  0  0  0  0  0  0  0
    6.6524   -0.2376    1.8286 N   0  0  0  0  0  0  0  0  0  0  0  0
    8.1209   -3.5927    2.5723 C   0  0  0  0  0  0  0  0  0  0  0  0
    7.7325    1.7120    6.2551 S   0  0  0  0  0  0  0  0  0  0  0  0
    6.5298    1.8587    7.0502 O   0  0  0  0  0  0  0  0  0  0  0  0
    2.2759   -2.2170    1.9534 C   0  0  0  0  0  0  0  0  0  0  0  0
   -0.6736    2.3638   -0.6317 C   0  0  0  0  0  0  0  0  0  0  0  0
    1.5094    2.6901   -0.0639 N   0  0  0  0  0  0  0  0  0  0  0  0
   -0.0862    1.1765   -0.4891 C   0  0  0  0  0  0  0  0  0  0  0  0
  1 24  1  0
  1 34  1  0
  2 10  1  0
  3  7  1  0
  3 12  1  0
  3 26  1  0
  4  5  1  0
  4 32  1  0
  5  7  1  0
  5 18  1  0
  6 14  1  0
  6 27  1  0
  7 20  2  0
  8 10  1  0
  9 18  1  0
  9 34  1  0
  9 35  1  0
 10 11  1  0
 12 23  1  0
 12 28  1  0
 13 33  1  0
 13 34  1  0
 14 23  1  0
 15 32  2  0
 16 25  1  0
 16 27  1  0
 16 28  1  0
 17 25  1  0
 17 29  1  0
 19 30  1  0
 21 27  1  0
 21 29  1  0
 22 30  1  0
 26 32  1  0
 30 31  1  0
 33 35  1  0
M  END
$$$$
