
     RDKit          3D

 25 27  0  0  0  0  0  0  0  0999 V2000
    4.7958    2.9799    2.9922 C   0  0  0  0  0  0  0  0  0  0  0  0
    1.4520    1.1285   -0.0581 C   0  0  0  0  0  0  0  0  0  0  0  0
    6.9368   -2.9511    2.4028 C   0  0  0  0  0  0  0  0  0  0  0  0
    9.1455   -3.1142    0.4084 C   0  0  0  0  0  0  0  0  0  0  0  0
    4.0721    2.1931    1.9347 C   0  0  0  0  0  0  0  0  0  0  0  0
    5.9258   -1.2050    1.0071 C   0  0  0  0  0  0  0  0  0  0  0  0
    0.3461    1.3792   -0.9242 O   0  0  0  0  0  0  0  0  0  0  0  0
    2.5896   -1.1322    0.9208 C   0  0  0  0  0  0  0  0  0  0  0  0
    1.3449    3.5594   -0.2408 N   0  0  0  0  0  0  0  0  0  0  0  0
    7.4082    2.7242    3.2125 P   0  0  0  0  0  0  0  0  0  0  0  0
    8.3636   -1.7439    0.4181 C   0  0  0  0  0  0  0  0  0  0  0  0
    2.1419   -2.8968    2.4677 C   0  0  0  0  0  0  0  0  0  0  0  0
    4.6439   -1.8008    1.7600 C   0  0  0  0  0  0  0  0  0  0  0  0
    5.3631   -2.9457    2.6677 C   0  0  0  0  0  0  0  0  0  0  0  0
    1.9991   -0.2491   -0.1825 C   0  0  0  0  0  0  0  0  0  0  0  0
    2.2420    2.4621    0.1887 C   0  0  0  0  0  0  0  0  0  0  0  0
    7.2506   -1.7895    1.4704 C   0  0  0  0  0  0  0  0  0  0  0  0
    6.9588    1.9084    4.4234 O   0  0  0  0  0  0  0  0  0  0  0  0
    3.6909   -0.3382    1.5563 C   0  0  0  0  0  0  0  0  0  0  0  0
    8.3458    3.6633    3.6743 O   0  0  0  0  0  0  0  0  0  0  0  0
    7.8567    2.0327    1.8862 O   0  0  0  0  0  0  0  0  0  0  0  0
    6.0960    3.5467    2.5654 O   0  0  0  0  0  0  0  0  0  0  0  0
    4.0868    0.9294    1.3205 O   0  0  0  0  0  0  0  0  0  0  0  0
    3.2889    3.1369    1.1066 C   0  0  0  0  0  0  0  0  0  0  0  0
    3.1867   -2.4078    1.6050 N   0  0  0  0  0  0  0  0  0  0  0  0
  1  5  1  0
  1 22  1  0
  2  7  1  0
  2 15  1  0
  2 16  1  0
  3 14  1  0
  3 17  1  0
  4 11  1  0
  5 23  1  0
  5 24  1  0
  6 13  1  0
  6 17  1  0
  8 15  1  0
  8 19  1  0
  8 25  1  0
  9 16  1  0
 10 18  1  0
 10 20  1  0
 10 21  1  0
 10 22  1  0
 11 17  1  0
 12 25  1  0
 13 14  1  0
 13 19  1  0
 13 25  1  0
 16 24  1  0
 19 23  1  0
M  END
$$$$
