
     RDKit          3D

 25 25  0  0  0  0  0  0  0  0999 V2000
   26.5573   35.2827  103.1836 C   0  0  0  0  0  0  0  0  0  0  0  0
   28.9459   35.0450  103.8947 C   0  0  0  0  0  0  0  0  0  0  0  0
   26.3362   36.0335  100.6915 O   0  0  0  0  0  0  0  0  0  0  0  0
   25.8974   34.4663  108.0165 O   0  0  0  0  0  0  0  0  0  0  0  0
   28.9958   36.4063  103.7682 N   0  0  0  0  0  0  0  0  0  0  0  0
   24.5228   37.1473  101.7846 O   0  0  0  0  0  0  0  0  0  0  0  0
   30.4284   34.5746  103.9125 C   0  0  0  0  0  0  0  0  0  0  0  0
   25.1695   35.7505   98.5184 N   0  0  0  0  0  0  0  0  0  0  0  0
   25.7000   34.3814  105.7828 N   0  0  0  0  0  0  0  0  0  0  0  0
   30.0150   32.5190  102.6192 O   0  0  0  0  0  0  0  0  0  0  0  0
   24.9943   36.0793  101.0994 S   0  0  0  0  0  0  0  0  0  0  0  0
   31.9549   33.5625  102.2180 O   0  0  0  0  0  0  0  0  0  0  0  0
   27.0682   34.5630  105.4936 C   0  0  0  0  0  0  0  0  0  0  0  0
   31.1221   35.7809  103.6086 N   0  0  0  0  0  0  0  0  0  0  0  0
   30.8317   33.4137  102.8461 C   0  0  0  0  0  0  0  0  0  0  0  0
   24.8319   33.9861  104.6081 C   0  0  0  0  0  0  0  0  0  0  0  0
   27.4998   34.4875  104.0808 C   0  0  0  0  0  0  0  0  0  0  0  0
   23.2297   36.8486   99.1668 O   0  0  0  0  0  0  0  0  0  0  0  0
   30.2582   36.8476  103.7015 O   0  0  0  0  0  0  0  0  0  0  0  0
   23.9577   35.8180   99.2117 C   0  0  0  0  0  0  0  0  0  0  0  0
   25.2234   34.1276  107.0771 C   0  0  0  0  0  0  0  0  0  0  0  0
   24.0041   35.1298  100.5731 O   0  0  0  0  0  0  0  0  0  0  0  0
   30.8728   33.9920  105.2158 C   0  0  0  0  0  0  0  0  0  0  0  0
   25.0835   34.7938  103.2766 C   0  0  0  0  0  0  0  0  0  0  0  0
   23.8814   33.6547  107.2571 C   0  0  0  0  0  0  0  0  0  0  0  0
  1 17  1  0
  1 24  1  0
  2  5  2  0
  2  7  1  0
  2 17  1  0
  3 11  1  0
  4 21  2  0
  5 19  1  0
  6 11  1  0
  7 14  1  0
  7 15  1  0
  7 23  1  0
  8 20  1  0
  9 13  1  0
  9 16  1  0
  9 21  1  0
 10 15  2  0
 11 22  1  0
 12 15  1  0
 13 17  1  0
 14 19  1  0
 16 24  1  0
 18 20  2  0
 20 22  1  0
 21 25  1  0
M  END
$$$$
