
     RDKit          3D

 14 13  0  0  0  0  0  0  0  0999 V2000
   -8.7975    5.9976  -31.6980 O   0  0  0  0  0  0  0  0  0  0  0  0
   -7.3763    3.3370  -33.3053 O   0  0  0  0  0  0  0  0  0  0  0  0
  -10.1824    3.9769  -28.4048 C   0  0  0  0  0  0  0  0  0  0  0  0
   -7.1216    2.4452  -32.0901 P   0  0  0  0  0  0  0  0  0  0  0  0
   -9.7952    5.2411  -27.9870 N   0  0  0  0  0  0  0  0  0  0  0  0
   -6.6996    3.4831  -30.9262 O   0  0  0  0  0  0  0  0  0  0  0  0
  -10.7312    3.1705  -29.4960 O   0  0  0  0  0  0  0  0  0  0  0  0
   -7.4314    3.6843  -29.7309 C   0  0  0  0  0  0  0  0  0  0  0  0
   -8.0085    7.0239  -27.4349 S   0  0  0  0  0  0  0  0  0  0  0  0
   -8.3822    5.4896  -28.3166 C   0  0  0  0  0  0  0  0  0  0  0  0
   -9.2568    5.1319  -30.6638 C   0  0  0  0  0  0  0  0  0  0  0  0
   -8.2739    1.5355  -31.8396 O   0  0  0  0  0  0  0  0  0  0  0  0
   -5.7987    1.6511  -32.2639 O   0  0  0  0  0  0  0  0  0  0  0  0
   -8.1225    4.9680  -29.6656 C   0  0  0  0  0  0  0  0  0  0  0  0
  1 11  1  0
  2  4  1  0
  3  5  1  0
  3  7  1  0
  4  6  1  0
  4 12  1  0
  4 13  1  0
  5 10  1  0
  6  8  1  0
  8 14  1  0
  9 10  2  0
 10 14  1  0
 11 14  1  0
M  END
$$$$
