
     RDKit          3D

 12 13  0  0  0  0  0  0  0  0999 V2000
   -9.3323  -64.6656   16.9463 O   0  0  0  0  0  0  0  0  0  0  0  0
   -8.2369  -62.6694   16.4722 C   0  0  0  0  0  0  0  0  0  0  0  0
   -8.0278  -64.1512   17.1347 C   0  0  0  0  0  0  0  0  0  0  0  0
   -7.0032  -65.1380   16.7122 O   0  0  0  0  0  0  0  0  0  0  0  0
   -7.5766  -61.7172   15.5208 C   0  0  0  0  0  0  0  0  0  0  0  0
   -7.5500  -63.9067   18.6359 C   0  0  0  0  0  0  0  0  0  0  0  0
   -7.0240  -62.3642   18.5380 C   0  0  0  0  0  0  0  0  0  0  0  0
   -8.4315  -63.9947   19.6731 O   0  0  0  0  0  0  0  0  0  0  0  0
   -7.8440  -60.4338   17.3475 O   0  0  0  0  0  0  0  0  0  0  0  0
   -5.9384  -62.4676   17.5803 O   0  0  0  0  0  0  0  0  0  0  0  0
   -8.2676  -61.7440   17.7458 C   0  0  0  0  0  0  0  0  0  0  0  0
   -8.0485  -60.4139   15.9129 O   0  0  0  0  0  0  0  0  0  0  0  0
  1  3  1  0
  2  3  1  0
  2  5  1  0
  2 11  1  0
  3  4  1  0
  3  6  1  0
  5 12  1  0
  6  7  1  0
  6  8  1  0
  7 10  1  0
  7 11  1  0
  9 11  1  0
  9 12  1  0
M  END
$$$$
