
     RDKit          3D

  9 10  0  0  0  0  0  0  0  0999 V2000
   -8.5514  -63.2837   18.0862 C   0  0  0  0  0  0  0  0  0  0  0  0
   -7.9507  -61.7829   15.6834 C   0  0  0  0  0  0  0  0  0  0  0  0
   -9.0857  -61.0650   16.5562 C   0  0  0  0  0  0  0  0  0  0  0  0
   -8.0191  -60.6880   17.7068 C   0  0  0  0  0  0  0  0  0  0  0  0
   -7.2944  -65.1076   16.9254 N   0  0  0  0  0  0  0  0  0  0  0  0
   -7.9997  -63.8637   16.9552 C   0  0  0  0  0  0  0  0  0  0  0  0
   -6.9056  -61.6440   16.9697 C   0  0  0  0  0  0  0  0  0  0  0  0
   -8.2675  -63.2646   15.6574 C   0  0  0  0  0  0  0  0  0  0  0  0
   -7.1213  -62.9125   17.8544 C   0  0  0  0  0  0  0  0  0  0  0  0
  1  6  1  0
  1  9  1  0
  2  3  1  0
  2  7  1  0
  2  8  1  0
  3  4  1  0
  4  7  1  0
  5  6  1  0
  6  8  1  0
  7  9  1  0
M  END
$$$$
