
     RDKit          3D

 20 19  0  0  0  0  0  0  0  0999 V2000
   17.6312   34.3680   13.5082 C   0  0  0  0  0  0  0  0  0  0  0  0
   10.4363   35.5730   17.6298 N   0  0  0  0  0  0  0  0  0  0  0  0
   12.1536   34.2619   15.2560 C   0  0  0  0  0  0  0  0  0  0  0  0
   12.8951   32.7201   15.6471 C   0  0  0  0  0  0  0  0  0  0  0  0
   10.5592   31.7688   17.1880 N   0  0  0  0  0  0  0  0  0  0  0  0
   12.0585   37.2047   18.5032 O   0  0  0  0  0  0  0  0  0  0  0  0
   15.6296   35.7002   11.8316 C   0  0  0  0  0  0  0  0  0  0  0  0
   17.0668   34.2810   11.9666 C   0  0  0  0  0  0  0  0  0  0  0  0
   11.7016   31.7038   16.2811 C   0  0  0  0  0  0  0  0  0  0  0  0
   10.3588   34.4266   17.2052 C   0  0  0  0  0  0  0  0  0  0  0  0
   11.2486   34.6093   16.1433 C   0  0  0  0  0  0  0  0  0  0  0  0
   12.7203   35.2078   14.2887 C   0  0  0  0  0  0  0  0  0  0  0  0
   12.6432   36.2132   14.0456 O   0  0  0  0  0  0  0  0  0  0  0  0
   14.8222   35.4485   12.7786 N   0  0  0  0  0  0  0  0  0  0  0  0
   14.0497   32.4753   15.0305 C   0  0  0  0  0  0  0  0  0  0  0  0
   14.4328   34.6598   13.6806 C   0  0  0  0  0  0  0  0  0  0  0  0
   10.0360   33.0888   18.0206 N   0  0  0  0  0  0  0  0  0  0  0  0
   15.3672   35.2935   10.3395 C   0  0  0  0  0  0  0  0  0  0  0  0
   10.7193   36.6595   18.2975 C   0  0  0  0  0  0  0  0  0  0  0  0
   14.7114   33.3150   14.1948 C   0  0  0  0  0  0  0  0  0  0  0  0
  1  8  1  0
  2 10  1  0
  2 19  1  0
  3  4  1  0
  3 11  2  0
  3 12  1  0
  4  9  1  0
  4 15  1  0
  5  9  2  0
  5 17  1  0
  6 19  1  0
  7 14  1  0
  7 18  1  0
 10 11  2  0
 10 17  1  0
 12 13  2  0
 14 16  2  3
 15 20  2  3
 16 20  1  0
M  END
$$$$
