
     RDKit          3D

 11 11  0  0  0  0  0  0  0  0999 V2000
   12.9764   35.7933   11.8333 N   0  0  0  0  0  0  0  0  0  0  0  0
   11.0904   32.8166   17.3568 C   0  0  0  0  0  0  0  0  0  0  0  0
   12.7999   35.0329   14.7608 C   0  0  0  0  0  0  0  0  0  0  0  0
   12.4849   34.2820   16.0256 C   0  0  0  0  0  0  0  0  0  0  0  0
   13.8134   36.3789   14.7309 C   0  0  0  0  0  0  0  0  0  0  0  0
   14.9234   35.7876   13.8677 C   0  0  0  0  0  0  0  0  0  0  0  0
   13.1659   34.2052   13.5547 C   0  0  0  0  0  0  0  0  0  0  0  0
   14.1864   35.3957   12.6443 C   0  0  0  0  0  0  0  0  0  0  0  0
   11.2324   34.3078   16.9239 N   0  0  0  0  0  0  0  0  0  0  0  0
   10.0041   32.2758   17.4368 N   0  0  0  0  0  0  0  0  0  0  0  0
   12.4992   32.7055   16.0095 C   0  0  0  0  0  0  0  0  0  0  0  0
  1  8  1  0
  2  9  1  0
  2 10  2  0
  3  4  1  0
  3  5  1  0
  3  7  1  0
  4  9  1  0
  4 11  1  0
  5  6  1  0
  6  8  1  0
  7  8  1  0
M  END
$$$$
