
     RDKit          3D

 15 14  0  0  0  0  0  0  0  0999 V2000
   12.6196   36.2332   17.5417 C   0  0  0  0  0  0  0  0  0  0  0  0
   15.5748   35.3238   11.3700 C   0  0  0  0  0  0  0  0  0  0  0  0
   12.3590   35.7061   15.9351 C   0  0  0  0  0  0  0  0  0  0  0  0
    9.9560   32.0327   17.0533 N   0  0  0  0  0  0  0  0  0  0  0  0
   15.6180   33.6873   11.7799 C   0  0  0  0  0  0  0  0  0  0  0  0
   10.7710   33.1905   17.3135 N   0  0  0  0  0  0  0  0  0  0  0  0
   12.9395   36.5836   15.1604 O   0  0  0  0  0  0  0  0  0  0  0  0
   13.4331   34.0805   14.4969 C   0  0  0  0  0  0  0  0  0  0  0  0
   15.9380   33.9670   13.3543 C   0  0  0  0  0  0  0  0  0  0  0  0
   13.7386   32.5997   14.1622 C   0  0  0  0  0  0  0  0  0  0  0  0
   11.3539   33.2111   15.9361 C   0  0  0  0  0  0  0  0  0  0  0  0
   14.5602   34.9228   13.7252 C   0  0  0  0  0  0  0  0  0  0  0  0
   11.3138   32.0933   15.4553 N   0  0  0  0  0  0  0  0  0  0  0  0
   12.3790   34.3162   15.5544 C   0  0  0  0  0  0  0  0  0  0  0  0
   16.5176   35.8419   12.4079 C   0  0  0  0  0  0  0  0  0  0  0  0
  1  3  1  0
  2  5  1  0
  2 15  1  0
  3  7  1  0
  3 14  1  0
  4  6  1  0
  5  9  1  0
  6 11  1  0
  8 10  1  0
  8 12  1  0
  8 14  1  0
  9 12  1  0
 11 13  2  0
 11 14  1  0
M  END
$$$$
