
     RDKit          3D

 19 20  0  0  0  0  0  0  0  0999 V2000
   10.0258   33.4320   18.0325 O   0  0  0  0  0  0  0  0  0  0  0  0
   13.0177   33.9012   14.6317 C   0  0  0  0  0  0  0  0  0  0  0  0
   15.9565   35.9089   13.3961 C   0  0  0  0  0  0  0  0  0  0  0  0
   12.3493   32.7220   14.5496 C   0  0  0  0  0  0  0  0  0  0  0  0
   14.4119   33.8130   14.0579 C   0  0  0  0  0  0  0  0  0  0  0  0
   10.3900   32.8883   17.5288 C   0  0  0  0  0  0  0  0  0  0  0  0
   11.3496   32.5999   15.4255 C   0  0  0  0  0  0  0  0  0  0  0  0
   17.0422   35.8182   10.8533 C   0  0  0  0  0  0  0  0  0  0  0  0
   15.9207   35.3078   10.9551 C   0  0  0  0  0  0  0  0  0  0  0  0
   16.7880   36.8457   13.0796 C   0  0  0  0  0  0  0  0  0  0  0  0
   17.3513   36.8347   12.1655 C   0  0  0  0  0  0  0  0  0  0  0  0
   10.8849   33.5106   16.3169 C   0  0  0  0  0  0  0  0  0  0  0  0
   11.4778   34.7806   16.3488 C   0  0  0  0  0  0  0  0  0  0  0  0
   14.5244   33.8781   12.5697 C   0  0  0  0  0  0  0  0  0  0  0  0
   15.4491   33.4918   14.9015 O   0  0  0  0  0  0  0  0  0  0  0  0
   11.2800   36.0906   17.7351 Cl  0  0  0  0  0  0  0  0  0  0  0  0
   12.3902   35.0520   15.3673 C   0  0  0  0  0  0  0  0  0  0  0  0
   15.4236   35.1237   12.3021 C   0  0  0  0  0  0  0  0  0  0  0  0
    9.9640   31.7746   16.8671 O   0  0  0  0  0  0  0  0  0  0  0  0
  1  6  1  0
  2  4  1  0
  2  5  1  0
  2 17  1  0
  3 10  1  0
  3 18  2  0
  4  7  1  0
  5 14  1  0
  5 15  1  0
  6 12  1  0
  6 19  1  0
  7 12  1  0
  8  9  1  0
  8 11  1  0
  9 18  1  0
 10 11  2  0
 12 13  1  0
 13 16  1  0
 13 17  1  0
 14 18  1  0
M  END
$$$$
