
     RDKit          3D

 16 17  0  0  0  0  0  0  0  0999 V2000
   14.7234   35.3083   11.2717 C   0  0  0  0  0  0  0  0  0  0  0  0
   17.6166   34.1286   13.5771 C   0  0  0  0  0  0  0  0  0  0  0  0
   16.2012   35.4762   11.9880 C   0  0  0  0  0  0  0  0  0  0  0  0
   16.3966   34.3896   13.1703 C   0  0  0  0  0  0  0  0  0  0  0  0
   10.1622   32.5274   17.5228 N   0  0  0  0  0  0  0  0  0  0  0  0
   11.8579   32.2560   15.8635 C   0  0  0  0  0  0  0  0  0  0  0  0
   10.0443   33.9466   17.4214 C   0  0  0  0  0  0  0  0  0  0  0  0
   12.7400   34.5723   15.2263 C   0  0  0  0  0  0  0  0  0  0  0  0
   11.7644   33.7828   15.7823 C   0  0  0  0  0  0  0  0  0  0  0  0
   12.8136   31.6453   14.9289 C   0  0  0  0  0  0  0  0  0  0  0  0
   11.2996   35.9898   16.2266 C   0  0  0  0  0  0  0  0  0  0  0  0
   14.0573   32.3766   14.6245 C   0  0  0  0  0  0  0  0  0  0  0  0
   10.9571   34.6299   16.6924 N   0  0  0  0  0  0  0  0  0  0  0  0
   10.6973   31.4459   16.7734 C   0  0  0  0  0  0  0  0  0  0  0  0
   14.1558   33.8947   14.7752 C   0  0  0  0  0  0  0  0  0  0  0  0
   12.2957   35.9234   15.3878 C   0  0  0  0  0  0  0  0  0  0  0  0
  1  3  1  0
  2  4  2  0
  3  4  1  0
  5  7  1  0
  5 14  1  0
  6  9  1  0
  6 10  1  0
  6 14  1  0
  7 13  1  0
  8  9  1  0
  8 15  1  0
  8 16  1  0
  9 13  1  0
 10 12  1  0
 11 13  1  0
 11 16  1  0
 12 15  1  0
M  END
$$$$
