
     RDKit          3D

 13 14  0  0  0  0  0  0  0  0999 V2000
   14.5559   35.4911   12.1606 C   0  0  0  0  0  0  0  0  0  0  0  0
   14.4279   33.5569   14.5366 S   0  0  0  0  0  0  0  0  0  0  0  0
   11.4037   31.9395   17.2808 C   0  0  0  0  0  0  0  0  0  0  0  0
   11.8881   34.7062   15.5770 C   0  0  0  0  0  0  0  0  0  0  0  0
   12.2176   35.9963   15.0776 C   0  0  0  0  0  0  0  0  0  0  0  0
   13.0172   36.1164   14.0276 N   0  0  0  0  0  0  0  0  0  0  0  0
   12.4017   32.3228   15.9966 C   0  0  0  0  0  0  0  0  0  0  0  0
   10.6890   33.2176   17.6689 C   0  0  0  0  0  0  0  0  0  0  0  0
   10.1904   33.4170   18.2928 O   0  0  0  0  0  0  0  0  0  0  0  0
   12.9537   33.4859   15.6154 C   0  0  0  0  0  0  0  0  0  0  0  0
   10.8087   34.5360   16.5658 C   0  0  0  0  0  0  0  0  0  0  0  0
   14.2437   35.2201   13.5924 C   0  0  0  0  0  0  0  0  0  0  0  0
   12.4132   37.1044   16.2467 O   0  0  0  0  0  0  0  0  0  0  0  0
  1 12  1  0
  2 10  1  0
  2 12  1  0
  3  7  1  0
  3  8  1  0
  4  5  1  0
  4 10  1  0
  4 11  1  0
  5  6  1  0
  5 13  2  0
  6 12  2  0
  7 10  1  0
  8  9  2  0
  8 11  1  0
M  END
$$$$
