
     RDKit          3D

 12 13  0  0  0  0  0  0  0  0999 V2000
   10.1275   34.3628   17.2881 C   0  0  0  0  0  0  0  0  0  0  0  0
   14.7571   35.3876   13.0096 N   0  0  0  0  0  0  0  0  0  0  0  0
   12.1244   34.7179   15.6398 C   0  0  0  0  0  0  0  0  0  0  0  0
   10.6842   31.9557   17.2949 C   0  0  0  0  0  0  0  0  0  0  0  0
   11.7668   32.1814   16.2689 C   0  0  0  0  0  0  0  0  0  0  0  0
   14.0480   33.0494   14.6828 S   0  0  0  0  0  0  0  0  0  0  0  0
   12.4412   33.3844   15.6150 C   0  0  0  0  0  0  0  0  0  0  0  0
   12.8231   35.5753   14.7347 C   0  0  0  0  0  0  0  0  0  0  0  0
   14.1594   35.3561   11.6251 O   0  0  0  0  0  0  0  0  0  0  0  0
   13.9950   34.8836   14.0118 C   0  0  0  0  0  0  0  0  0  0  0  0
   11.0336   35.0487   16.7027 C   0  0  0  0  0  0  0  0  0  0  0  0
   10.0401   33.0926   18.0592 N   0  0  0  0  0  0  0  0  0  0  0  0
  1 11  1  0
  1 12  1  0
  2  9  1  0
  2 10  1  0
  3  7  2  0
  3  8  1  0
  3 11  1  0
  4  5  2  0
  4 12  1  0
  5  7  1  0
  6  7  1  0
  6 10  1  0
  8 10  1  0
M  END
$$$$
