
     RDKit          3D

 12 12  0  0  0  0  0  0  0  0999 V2000
   13.4194   35.8370   13.8943 C   0  0  0  0  0  0  0  0  0  0  0  0
   11.9649   32.9363   16.2806 C   0  0  0  0  0  0  0  0  0  0  0  0
   13.7165   35.6050   12.3483 N   0  0  0  0  0  0  0  0  0  0  0  0
   10.5695   34.8822   17.0548 C   0  0  0  0  0  0  0  0  0  0  0  0
    9.9856   33.9769   17.6386 N   0  0  0  0  0  0  0  0  0  0  0  0
   12.5416   35.4345   15.2640 C   0  0  0  0  0  0  0  0  0  0  0  0
   11.0662   32.0933   17.2930 C   0  0  0  0  0  0  0  0  0  0  0  0
   14.9473   35.5297   11.9316 C   0  0  0  0  0  0  0  0  0  0  0  0
   10.1974   32.8905   17.8456 N   0  0  0  0  0  0  0  0  0  0  0  0
   14.7931   33.3214   13.6714 S   0  0  0  0  0  0  0  0  0  0  0  0
   11.6838   34.3588   16.1827 C   0  0  0  0  0  0  0  0  0  0  0  0
   15.6880   34.3712   12.9850 C   0  0  0  0  0  0  0  0  0  0  0  0
  1  3  1  0
  1  6  1  0
  2  7  1  0
  2 11  2  0
  3  8  1  0
  4  5  1  0
  4 11  1  0
  5  9  1  0
  6 11  1  0
  7  9  1  0
  8 12  1  0
 10 12  2  0
M  END
$$$$
