
     RDKit          3D

 14 14  0  0  0  0  0  0  0  0999 V2000
   13.1236   35.7728   14.4684 C   0  0  0  0  0  0  0  0  0  0  0  0
   15.7077   35.7820   13.5757 C   0  0  0  0  0  0  0  0  0  0  0  0
   12.2389   34.6765   15.4421 C   0  0  0  0  0  0  0  0  0  0  0  0
   13.0230   32.1134   15.1289 C   0  0  0  0  0  0  0  0  0  0  0  0
   13.4249   37.1646   15.2280 N   0  0  0  0  0  0  0  0  0  0  0  0
    9.8806   33.6030   17.4773 N   0  0  0  0  0  0  0  0  0  0  0  0
   10.5652   31.3812   16.7268 N   0  0  0  0  0  0  0  0  0  0  0  0
   12.0953   37.0525   16.5793 N   0  0  0  0  0  0  0  0  0  0  0  0
   14.1801   35.4736   11.7011 N   0  0  0  0  0  0  0  0  0  0  0  0
   11.4062   35.5936   16.1723 C   0  0  0  0  0  0  0  0  0  0  0  0
   10.3172   34.9091   17.0946 C   0  0  0  0  0  0  0  0  0  0  0  0
   10.7444   32.6804   16.6845 C   0  0  0  0  0  0  0  0  0  0  0  0
   14.4583   35.4730   13.3703 C   0  0  0  0  0  0  0  0  0  0  0  0
   11.8182   33.2785   15.5457 N   0  0  0  0  0  0  0  0  0  0  0  0
  1  3  1  0
  1  5  1  0
  1 13  1  0
  2 13  2  0
  3 10  1  0
  3 14  1  0
  4 14  1  0
  6 11  1  0
  6 12  1  0
  7 12  2  0
  8 10  1  0
  9 13  1  0
 10 11  1  0
 12 14  1  0
M  END
$$$$
