
     RDKit          3D

 12 11  0  0  0  0  0  0  0  0999 V2000
   10.0781   32.9241   17.9574 N   0  0  0  0  0  0  0  0  0  0  0  0
   11.1422   32.1720   17.4006 N   0  0  0  0  0  0  0  0  0  0  0  0
   15.4313   33.7039   13.8872 C   0  0  0  0  0  0  0  0  0  0  0  0
   12.8694   35.0875   14.5845 C   0  0  0  0  0  0  0  0  0  0  0  0
   12.6422   35.9750   11.9096 N   0  0  0  0  0  0  0  0  0  0  0  0
   14.9803   35.3436   13.0299 C   0  0  0  0  0  0  0  0  0  0  0  0
   12.2945   35.9912   15.1886 O   0  0  0  0  0  0  0  0  0  0  0  0
   13.4388   35.5831   13.1391 C   0  0  0  0  0  0  0  0  0  0  0  0
   11.8920   33.3950   16.4828 C   0  0  0  0  0  0  0  0  0  0  0  0
   14.3585   32.9566   15.0234 C   0  0  0  0  0  0  0  0  0  0  0  0
   10.7647   34.2470   16.9809 N   0  0  0  0  0  0  0  0  0  0  0  0
   13.0874   33.8306   15.4829 C   0  0  0  0  0  0  0  0  0  0  0  0
  1  2  1  0
  2  9  1  0
  3 10  1  0
  4  7  2  0
  4  8  1  0
  4 12  1  0
  5  8  1  0
  6  8  1  0
  9 11  2  0
  9 12  1  0
 10 12  2  3
M  END
$$$$
