
     RDKit          3D

  9  8  0  0  0  0  0  0  0  0999 V2000
   64.2495   53.8331  109.4814 C   0  0  0  0  0  0  0  0  0  0  0  0
   63.3396   49.8441  111.1715 C   0  0  0  0  0  0  0  0  0  0  0  0
   61.6021   51.8708  107.6373 O   0  0  0  0  0  0  0  0  0  0  0  0
   61.3660   52.1670  110.7991 O   0  0  0  0  0  0  0  0  0  0  0  0
   62.8298   53.3813  109.3364 C   0  0  0  0  0  0  0  0  0  0  0  0
   61.9686   51.1100  108.8174 C   0  0  0  0  0  0  0  0  0  0  0  0
   64.5070   54.4088  110.7688 O   0  0  0  0  0  0  0  0  0  0  0  0
   63.5901   51.4018  110.7419 C   0  0  0  0  0  0  0  0  0  0  0  0
   62.4862   52.0229  109.9321 C   0  0  0  0  0  0  0  0  0  0  0  0
  1  5  1  0
  1  7  1  0
  2  8  1  0
  3  6  1  0
  4  9  1  0
  5  9  1  0
  6  9  1  0
  8  9  1  0
M  END
$$$$
