
     RDKit          3D

 12 12  0  0  0  0  0  0  0  0999 V2000
   63.3990   50.5239  110.9445 C   0  0  0  0  0  0  0  0  0  0  0  0
   63.9115   54.2463  110.1031 C   0  0  0  0  0  0  0  0  0  0  0  0
   61.1007   49.7957  110.1188 O   0  0  0  0  0  0  0  0  0  0  0  0
   62.0036   52.9779  109.1024 C   0  0  0  0  0  0  0  0  0  0  0  0
   63.9909   52.7605  110.3842 N   0  0  0  0  0  0  0  0  0  0  0  0
   61.3653   50.6235  108.1135 O   0  0  0  0  0  0  0  0  0  0  0  0
   62.7831   53.0854  107.8492 O   0  0  0  0  0  0  0  0  0  0  0  0
   62.7197   51.7497  109.9256 C   0  0  0  0  0  0  0  0  0  0  0  0
   63.4070   55.9315  111.7715 O   0  0  0  0  0  0  0  0  0  0  0  0
   64.3544   55.5662  110.7234 C   0  0  0  0  0  0  0  0  0  0  0  0
   61.7037   50.5383  109.3379 C   0  0  0  0  0  0  0  0  0  0  0  0
   62.3824   54.3732  109.7491 C   0  0  0  0  0  0  0  0  0  0  0  0
  1  8  1  0
  2  5  1  0
  2 10  1  0
  2 12  1  0
  3 11  2  0
  4  7  1  0
  4  8  1  0
  4 12  1  0
  5  8  1  0
  6 11  1  0
  8 11  1  0
  9 10  1  0
M  END
$$$$
