
     RDKit          3D

 27 30  0  0  0  0  0  0  0  0999 V2000
  -17.9901   -5.6294    4.8400 C   0  0  0  0  0  0  0  0  0  0  0  0
  -12.8891   -6.5741    3.7322 N   0  0  0  0  0  0  0  0  0  0  0  0
  -20.1779   -7.9025    1.2390 O   0  0  0  0  0  0  0  0  0  0  0  0
  -23.1358   -8.8998    2.9526 C   0  0  0  0  0  0  0  0  0  0  0  0
  -16.2413   -6.7248    4.0124 N   0  0  0  0  0  0  0  0  0  0  0  0
  -24.4691   -6.5487    0.7676 O   0  0  0  0  0  0  0  0  0  0  0  0
  -14.5038   -5.7166    5.4306 C   0  0  0  0  0  0  0  0  0  0  0  0
  -24.4196   -7.6485    1.4918 C   0  0  0  0  0  0  0  0  0  0  0  0
  -19.6584   -4.3227    5.7912 F   0  0  0  0  0  0  0  0  0  0  0  0
  -23.0864   -8.1371    1.6603 C   0  0  0  0  0  0  0  0  0  0  0  0
  -13.2843   -6.2149    4.9707 C   0  0  0  0  0  0  0  0  0  0  0  0
  -25.2408   -8.3417    2.2579 O   0  0  0  0  0  0  0  0  0  0  0  0
  -24.4938   -9.0566    3.2489 C   0  0  0  0  0  0  0  0  0  0  0  0
  -15.7829   -5.8755    4.9496 C   0  0  0  0  0  0  0  0  0  0  0  0
  -18.5749   -7.3278    3.2607 C   0  0  0  0  0  0  0  0  0  0  0  0
  -22.0092   -9.5562    3.7145 C   0  0  0  0  0  0  0  0  0  0  0  0
  -11.1253   -6.6105    5.0818 N   0  0  0  0  0  0  0  0  0  0  0  0
  -16.8391   -5.1734    5.4487 C   0  0  0  0  0  0  0  0  0  0  0  0
  -23.5800   -6.5593   -0.3681 C   0  0  0  0  0  0  0  0  0  0  0  0
  -20.2863   -5.9127    4.2319 N   0  0  0  0  0  0  0  0  0  0  0  0
  -12.1596   -6.2343    5.7910 N   0  0  0  0  0  0  0  0  0  0  0  0
  -19.9221   -6.8891    3.3223 C   0  0  0  0  0  0  0  0  0  0  0  0
  -19.3383   -5.2750    4.9766 C   0  0  0  0  0  0  0  0  0  0  0  0
  -20.8515   -7.4359    2.3507 C   0  0  0  0  0  0  0  0  0  0  0  0
  -11.5542   -6.8009    3.8055 N   0  0  0  0  0  0  0  0  0  0  0  0
  -17.6240   -6.6472    3.9596 C   0  0  0  0  0  0  0  0  0  0  0  0
  -22.1613   -6.9140    1.9354 C   0  0  0  0  0  0  0  0  0  0  0  0
  1 18  1  0
  1 23  1  0
  1 26  1  0
  2 11  2  0
  2 25  1  0
  3 24  1  0
  4 10  1  0
  4 13  1  0
  4 16  1  0
  5 14  1  0
  5 26  1  0
  6  8  1  0
  6 19  1  0
  7 11  1  0
  7 14  2  3
  8 10  1  0
  8 12  1  0
  9 23  1  0
 10 27  1  0
 11 21  1  0
 12 13  1  0
 14 18  1  0
 15 22  1  0
 15 26  2  0
 17 21  1  0
 17 25  1  0
 20 22  1  0
 20 23  2  0
 22 24  1  0
 24 27  1  0
M  END
$$$$
