
     RDKit          3D

 10  9  0  0  0  0  0  0  0  0999 V2000
  -18.2902   -4.7570    4.3644 O   0  0  0  0  0  0  0  0  0  0  0  0
  -12.3128   -6.7735    6.0076 O   0  0  0  0  0  0  0  0  0  0  0  0
  -11.6665   -6.9949    3.9002 O   0  0  0  0  0  0  0  0  0  0  0  0
  -18.5459   -7.1789    4.4566 C   0  0  0  0  0  0  0  0  0  0  0  0
  -13.8347   -6.2743    4.2963 C   0  0  0  0  0  0  0  0  0  0  0  0
  -16.1267   -6.5980    5.1599 C   0  0  0  0  0  0  0  0  0  0  0  0
  -18.0166   -5.9462    3.8507 C   0  0  0  0  0  0  0  0  0  0  0  0
  -16.5167   -6.0851    3.7964 O   0  0  0  0  0  0  0  0  0  0  0  0
  -14.7358   -5.9451    5.4358 C   0  0  0  0  0  0  0  0  0  0  0  0
  -12.4759   -6.5788    4.8137 C   0  0  0  0  0  0  0  0  0  0  0  0
  1  7  1  0
  2 10  2  0
  3 10  1  0
  4  7  1  0
  5  9  1  0
  5 10  1  0
  6  8  1  0
  6  9  1  0
  7  8  1  0
M  END
$$$$
