
     RDKit          3D

 25 28  0  0  0  0  0  0  0  0999 V2000
   -3.0657   23.5118  -30.5426 O   0  0  0  0  0  0  0  0  0  0  0  0
    1.7835   19.5078  -31.9142 C   0  0  0  0  0  0  0  0  0  0  0  0
    4.4910   18.8673  -35.2850 N   0  0  0  0  0  0  0  0  0  0  0  0
    0.8701   19.8638  -31.0369 C   0  0  0  0  0  0  0  0  0  0  0  0
   -0.0889   22.1193  -31.1122 C   0  0  0  0  0  0  0  0  0  0  0  0
   -2.5912   26.0753  -29.1925 C   0  0  0  0  0  0  0  0  0  0  0  0
    0.1619   20.8384  -30.6081 C   0  0  0  0  0  0  0  0  0  0  0  0
    1.3575   21.5973  -33.0392 C   0  0  0  0  0  0  0  0  0  0  0  0
    2.0443   20.3856  -33.0137 C   0  0  0  0  0  0  0  0  0  0  0  0
   -0.8854   22.3592  -28.8727 O   0  0  0  0  0  0  0  0  0  0  0  0
    4.1062   17.8256  -33.2694 C   0  0  0  0  0  0  0  0  0  0  0  0
    3.4200   17.5782  -32.1232 C   0  0  0  0  0  0  0  0  0  0  0  0
    4.0939   19.8786  -36.0370 C   0  0  0  0  0  0  0  0  0  0  0  0
   -1.7050   24.9188  -29.1489 N   0  0  0  0  0  0  0  0  0  0  0  0
    3.8180   18.8701  -34.0993 C   0  0  0  0  0  0  0  0  0  0  0  0
   -1.7852   24.0479  -30.3461 C   0  0  0  0  0  0  0  0  0  0  0  0
   -1.5041   24.9105  -31.6276 C   0  0  0  0  0  0  0  0  0  0  0  0
    2.3828   18.2689  -31.6148 C   0  0  0  0  0  0  0  0  0  0  0  0
    2.9545   19.9439  -34.0708 C   0  0  0  0  0  0  0  0  0  0  0  0
    3.1230   20.6311  -35.2857 C   0  0  0  0  0  0  0  0  0  0  0  0
   -2.6701   25.8629  -31.8262 C   0  0  0  0  0  0  0  0  0  0  0  0
    0.5229   22.3515  -32.2905 C   0  0  0  0  0  0  0  0  0  0  0  0
    1.8529   17.5963  -30.4269 C   0  0  0  0  0  0  0  0  0  0  0  0
   -0.7961   22.9262  -30.0895 C   0  0  0  0  0  0  0  0  0  0  0  0
   -2.6240   26.7057  -30.5439 C   0  0  0  0  0  0  0  0  0  0  0  0
  1 16  1  0
  2  4  1  0
  2  9  1  0
  2 18  2  0
  3 13  1  0
  3 15  1  0
  4  7  2  0
  5  7  1  0
  5 22  2  0
  5 24  1  0
  6 14  1  0
  6 25  1  0
  8  9  2  0
  8 22  1  0
  9 19  1  0
 10 24  1  0
 11 12  2  0
 11 15  1  0
 12 18  1  0
 13 20  1  0
 14 16  1  0
 15 19  2  0
 16 17  1  0
 16 24  1  0
 17 21  1  0
 18 23  1  0
 19 20  1  0
 21 25  1  0
M  END
$$$$
