
     RDKit          3D

 28 31  0  0  0  0  0  0  0  0999 V2000
   -3.5973   25.0886  -28.4331 C   0  0  0  0  0  0  0  0  0  0  0  0
    3.3320   20.2585  -34.9014 C   0  0  0  0  0  0  0  0  0  0  0  0
    4.5559   18.1677  -35.0070 C   0  0  0  0  0  0  0  0  0  0  0  0
    2.4443   18.1557  -31.8946 C   0  0  0  0  0  0  0  0  0  0  0  0
    3.9853   17.8392  -33.7857 C   0  0  0  0  0  0  0  0  0  0  0  0
    2.1490   21.4974  -30.6248 O   0  0  0  0  0  0  0  0  0  0  0  0
   -3.3791   26.2041  -29.3768 C   0  0  0  0  0  0  0  0  0  0  0  0
    4.2206   19.3947  -35.5784 C   0  0  0  0  0  0  0  0  0  0  0  0
   -1.8341   22.2582  -30.2534 C   0  0  0  0  0  0  0  0  0  0  0  0
   -2.0644   25.6170  -31.3750 C   0  0  0  0  0  0  0  0  0  0  0  0
   -0.3166   18.5909  -31.2475 N   0  0  0  0  0  0  0  0  0  0  0  0
   -2.8822   23.8525  -28.6960 C   0  0  0  0  0  0  0  0  0  0  0  0
    1.2411   21.9514  -33.7609 N   0  0  0  0  0  0  0  0  0  0  0  0
    1.4217   21.0045  -31.5628 C   0  0  0  0  0  0  0  0  0  0  0  0
   -4.0335   27.2814  -28.9618 O   0  0  0  0  0  0  0  0  0  0  0  0
   -0.5573   23.5472  -31.6390 C   0  0  0  0  0  0  0  0  0  0  0  0
   -2.1125   23.6034  -29.8663 C   0  0  0  0  0  0  0  0  0  0  0  0
   -0.7814   19.8254  -30.9341 C   0  0  0  0  0  0  0  0  0  0  0  0
   -1.3380   26.4262  -32.0490 O   0  0  0  0  0  0  0  0  0  0  0  0
    2.7621   19.9877  -33.6852 C   0  0  0  0  0  0  0  0  0  0  0  0
   -3.3956   25.9410  -30.8398 C   0  0  0  0  0  0  0  0  0  0  0  0
   -2.5114   21.1247  -29.9524 C   0  0  0  0  0  0  0  0  0  0  0  0
   -1.9933   19.9266  -30.3425 C   0  0  0  0  0  0  0  0  0  0  0  0
    1.8653   20.9480  -32.9507 C   0  0  0  0  0  0  0  0  0  0  0  0
   -0.7231   22.2016  -31.0615 C   0  0  0  0  0  0  0  0  0  0  0  0
    3.0975   18.6638  -33.1399 C   0  0  0  0  0  0  0  0  0  0  0  0
   -1.4500   24.4103  -30.9251 C   0  0  0  0  0  0  0  0  0  0  0  0
   -0.0245   21.0061  -31.2305 C   0  0  0  0  0  0  0  0  0  0  0  0
  1  7  1  0
  1 12  2  0
  2  8  1  0
  2 20  2  0
  3  5  1  0
  3  8  2  0
  4 26  1  0
  5 26  2  0
  6 14  2  0
  7 15  1  0
  7 21  1  0
  9 17  1  0
  9 22  1  0
  9 25  1  0
 10 19  2  0
 10 21  1  0
 10 27  1  0
 11 18  1  0
 12 17  1  0
 13 24  1  0
 14 24  1  0
 14 28  1  0
 16 25  1  0
 16 27  1  0
 17 27  1  0
 18 23  1  0
 18 28  1  0
 20 24  1  0
 20 26  1  0
 22 23  2  0
 25 28  1  0
M  END
$$$$
