
     RDKit          3D

 15 15  0  0  0  0  0  0  0  0999 V2000
  -13.0838   -6.6584    5.8029 N   0  0  0  0  0  0  0  0  0  0  0  0
  -10.2106   -7.0729    4.1629 N   0  0  0  0  0  0  0  0  0  0  0  0
  -19.2471   -3.9353    4.0828 C   0  0  0  0  0  0  0  0  0  0  0  0
  -19.0228   -7.8141    4.1893 C   0  0  0  0  0  0  0  0  0  0  0  0
  -12.6064   -6.7063    3.7272 N   0  0  0  0  0  0  0  0  0  0  0  0
  -18.5159   -6.1508    6.1334 C   0  0  0  0  0  0  0  0  0  0  0  0
  -19.6861   -5.3765    4.0178 C   0  0  0  0  0  0  0  0  0  0  0  0
  -16.1089   -6.4440    4.7798 C   0  0  0  0  0  0  0  0  0  0  0  0
  -11.4758   -6.7968    4.4317 C   0  0  0  0  0  0  0  0  0  0  0  0
  -17.2860   -6.0601    3.9208 C   0  0  0  0  0  0  0  0  0  0  0  0
  -13.6472   -6.5263    4.6602 C   0  0  0  0  0  0  0  0  0  0  0  0
  -18.6535   -6.3562    4.5604 C   0  0  0  0  0  0  0  0  0  0  0  0
  -20.8909   -5.8276    3.8719 O   0  0  0  0  0  0  0  0  0  0  0  0
  -14.8836   -6.0055    4.2850 C   0  0  0  0  0  0  0  0  0  0  0  0
  -11.8260   -6.8329    5.8339 N   0  0  0  0  0  0  0  0  0  0  0  0
  1 11  2  0
  1 15  1  0
  2  9  2  0
  3  7  1  0
  4 12  1  0
  5  9  1  0
  5 11  1  0
  6 12  1  0
  7 12  1  0
  7 13  1  0
  8 10  1  0
  8 14  1  0
  9 15  1  0
 10 12  1  0
 11 14  1  0
M  END
$$$$
