
     RDKit          3D

 16 18  0  0  0  0  0  0  0  0999 V2000
  -18.4507   -6.9393    4.1189 C   0  0  0  0  0  0  0  0  0  0  0  0
  -10.7320   -6.7980    5.0256 N   0  0  0  0  0  0  0  0  0  0  0  0
  -11.7680   -7.0298    3.5654 C   0  0  0  0  0  0  0  0  0  0  0  0
  -10.5887   -7.0665    3.9186 C   0  0  0  0  0  0  0  0  0  0  0  0
  -20.5073   -7.8514    4.4302 C   0  0  0  0  0  0  0  0  0  0  0  0
  -20.1685   -7.9967    3.0661 C   0  0  0  0  0  0  0  0  0  0  0  0
  -19.4459   -7.1675    5.0711 C   0  0  0  0  0  0  0  0  0  0  0  0
  -16.0034   -7.0216    4.7024 C   0  0  0  0  0  0  0  0  0  0  0  0
  -13.6974   -6.2773    5.3018 C   0  0  0  0  0  0  0  0  0  0  0  0
  -11.8771   -6.3661    5.5948 N   0  0  0  0  0  0  0  0  0  0  0  0
  -15.6852   -4.9130    4.6639 C   0  0  0  0  0  0  0  0  0  0  0  0
  -12.6850   -6.7827    4.6293 N   0  0  0  0  0  0  0  0  0  0  0  0
  -17.2250   -6.3705    4.3775 N   0  0  0  0  0  0  0  0  0  0  0  0
  -18.9003   -7.3598    2.8435 C   0  0  0  0  0  0  0  0  0  0  0  0
  -15.0797   -6.0906    4.8788 C   0  0  0  0  0  0  0  0  0  0  0  0
  -17.0477   -5.0507    4.4244 C   0  0  0  0  0  0  0  0  0  0  0  0
  1  7  1  0
  1 13  1  0
  1 14  1  0
  2  4  1  0
  2 10  1  0
  3  4  1  0
  3 12  1  0
  5  6  1  0
  5  7  1  0
  6 14  1  0
  8 13  1  0
  8 15  1  0
  9 12  1  0
  9 15  1  0
 10 12  1  0
 11 15  1  0
 11 16  1  0
 13 16  1  0
M  END
$$$$
