
     RDKit          3D

 12 12  0  0  0  0  0  0  0  0999 V2000
  -18.0464   -5.2791    5.4675 C   0  0  0  0  0  0  0  0  0  0  0  0
  -18.9901   -7.5225    4.2117 C   0  0  0  0  0  0  0  0  0  0  0  0
  -17.6862   -7.2802    4.3514 C   0  0  0  0  0  0  0  0  0  0  0  0
  -12.5448   -6.6055    4.9450 C   0  0  0  0  0  0  0  0  0  0  0  0
  -19.8676   -6.5914    4.7199 C   0  0  0  0  0  0  0  0  0  0  0  0
  -17.1742   -6.2533    5.0201 C   0  0  0  0  0  0  0  0  0  0  0  0
  -13.7507   -6.3416    4.4137 N   0  0  0  0  0  0  0  0  0  0  0  0
  -12.2966   -7.0463    6.1238 O   0  0  0  0  0  0  0  0  0  0  0  0
  -11.4686   -6.7805    3.9798 N   0  0  0  0  0  0  0  0  0  0  0  0
  -19.3875   -5.4389    5.3409 C   0  0  0  0  0  0  0  0  0  0  0  0
  -15.7663   -6.1942    5.3688 C   0  0  0  0  0  0  0  0  0  0  0  0
  -14.8574   -5.6341    4.5835 C   0  0  0  0  0  0  0  0  0  0  0  0
  1  6  1  0
  1 10  2  0
  2  3  1  0
  2  5  2  0
  3  6  2  0
  4  7  1  0
  4  8  2  0
  4  9  1  0
  5 10  1  0
  6 11  1  0
  7 12  1  0
 11 12  1  0
M  END
$$$$
