
     RDKit          3D

 12 11  0  0  0  0  0  0  0  0999 V2000
  -14.6491   -5.7518    4.2637 N   0  0  0  0  0  0  0  0  0  0  0  0
  -15.9272   -5.3843    4.4706 C   0  0  0  0  0  0  0  0  0  0  0  0
  -14.4591   -7.2366    5.9748 O   0  0  0  0  0  0  0  0  0  0  0  0
  -12.4165   -6.3636    5.0917 S   0  0  0  0  0  0  0  0  0  0  0  0
  -19.1194   -6.4384    4.2099 C   0  0  0  0  0  0  0  0  0  0  0  0
  -20.3363   -6.5862    3.3989 C   0  0  0  0  0  0  0  0  0  0  0  0
  -13.9397   -6.5077    5.1042 C   0  0  0  0  0  0  0  0  0  0  0  0
  -11.6007   -7.0007    3.9418 C   0  0  0  0  0  0  0  0  0  0  0  0
  -18.9752   -6.4940    5.6608 C   0  0  0  0  0  0  0  0  0  0  0  0
  -17.8789   -6.4149    3.4196 C   0  0  0  0  0  0  0  0  0  0  0  0
  -20.3022   -5.6477    2.3503 O   0  0  0  0  0  0  0  0  0  0  0  0
  -16.7485   -6.6688    4.3856 C   0  0  0  0  0  0  0  0  0  0  0  0
  1  2  1  0
  1  7  1  0
  2 12  1  0
  3  7  2  0
  4  7  1  0
  4  8  1  0
  5  6  1  0
  5  9  1  0
  5 10  1  0
  6 11  1  0
 10 12  1  0
M  END
$$$$
