
     RDKit          3D

 25 26  0  0  0  0  0  0  0  0999 V2000
    6.0097   -1.1325    1.4324 C   0  0  0  0  0  0  0  0  0  0  0  0
    3.1003    0.1054    0.8859 C   0  0  0  0  0  0  0  0  0  0  0  0
    8.3895   -1.2850    1.0639 C   0  0  0  0  0  0  0  0  0  0  0  0
    3.3045    2.4004    1.1839 C   0  0  0  0  0  0  0  0  0  0  0  0
    1.9662    0.0818    0.2734 C   0  0  0  0  0  0  0  0  0  0  0  0
    5.6041    3.2088    3.7707 P   0  0  0  0  0  0  0  0  0  0  0  0
    4.9971    4.2899    2.8387 O   0  0  0  0  0  0  0  0  0  0  0  0
    2.2907    2.9129    0.5641 C   0  0  0  0  0  0  0  0  0  0  0  0
    4.5959   -2.7639    3.3752 C   0  0  0  0  0  0  0  0  0  0  0  0
    7.1182    3.5316    3.8577 O   0  0  0  0  0  0  0  0  0  0  0  0
    3.8461   -1.8618    2.5001 C   0  0  0  0  0  0  0  0  0  0  0  0
   -0.2555    0.6655   -0.1967 O   0  0  0  0  0  0  0  0  0  0  0  0
    6.1790    0.1567    1.9665 C   0  0  0  0  0  0  0  0  0  0  0  0
    5.0236    0.9994    2.2742 C   0  0  0  0  0  0  0  0  0  0  0  0
    3.8033    1.1579    1.4488 C   0  0  0  0  0  0  0  0  0  0  0  0
    1.1531    2.3998    0.0435 N   0  0  0  0  0  0  0  0  0  0  0  0
    5.2267    1.8035    3.3301 O   0  0  0  0  0  0  0  0  0  0  0  0
    5.0859    3.2288    5.1368 O   0  0  0  0  0  0  0  0  0  0  0  0
    4.9768   -3.9349    2.5661 O   0  0  0  0  0  0  0  0  0  0  0  0
    4.6662   -1.7950    1.2539 C   0  0  0  0  0  0  0  0  0  0  0  0
    7.1217   -1.8007    0.9910 C   0  0  0  0  0  0  0  0  0  0  0  0
    8.5768   -0.0074    1.6411 C   0  0  0  0  0  0  0  0  0  0  0  0
    7.4594    0.6684    2.1004 C   0  0  0  0  0  0  0  0  0  0  0  0
    0.0437    3.1934   -0.3596 C   0  0  0  0  0  0  0  0  0  0  0  0
    1.0046    1.0355   -0.0382 C   0  0  0  0  0  0  0  0  0  0  0  0
  1 13  1  0
  1 20  1  0
  1 21  2  0
  2  5  2  0
  2 15  1  0
  3 21  1  0
  3 22  2  0
  4  8  2  0
  4 15  1  0
  5 25  1  0
  6  7  1  0
  6 10  1  0
  6 17  1  0
  6 18  1  0
  8 16  1  0
  9 11  1  0
  9 19  1  0
 11 20  1  0
 12 25  2  0
 13 14  1  0
 13 23  2  0
 14 15  1  0
 14 17  1  0
 16 24  1  0
 16 25  1  0
 22 23  1  0
M  END
$$$$
