
     RDKit          3D

 28 29  0  0  0  0  0  0  0  0999 V2000
    5.8005   -1.5874    1.9005 C   0  0  0  0  0  0  0  0  0  0  0  0
    7.3821    2.7214    2.8066 C   0  0  0  0  0  0  0  0  0  0  0  0
    6.6393    2.3848    3.9578 C   0  0  0  0  0  0  0  0  0  0  0  0
    8.8454   -0.9403    0.1060 O   0  0  0  0  0  0  0  0  0  0  0  0
    9.2427    2.4862    1.0819 O   0  0  0  0  0  0  0  0  0  0  0  0
    5.4796   -2.7069    2.7094 C   0  0  0  0  0  0  0  0  0  0  0  0
    3.2457   -3.8988    3.1250 C   0  0  0  0  0  0  0  0  0  0  0  0
    4.5027   -1.0413    1.2753 C   0  0  0  0  0  0  0  0  0  0  0  0
    3.9584    0.0810    0.5889 C   0  0  0  0  0  0  0  0  0  0  0  0
    1.4129    1.3428   -0.2506 C   0  0  0  0  0  0  0  0  0  0  0  0
    8.3537   -1.8624    1.1555 C   0  0  0  0  0  0  0  0  0  0  0  0
    8.8713    0.6764    2.7745 C   0  0  0  0  0  0  0  0  0  0  0  0
   -0.0301    1.0359   -0.1043 O   0  0  0  0  0  0  0  0  0  0  0  0
    9.7022    3.2897    3.4650 O   0  0  0  0  0  0  0  0  0  0  0  0
    1.9002   -0.9396    0.5287 C   0  0  0  0  0  0  0  0  0  0  0  0
    2.8270    3.5902   -0.1951 N   0  0  0  0  0  0  0  0  0  0  0  0
    4.1363   -2.9274    2.4807 N   0  0  0  0  0  0  0  0  0  0  0  0
    2.2944   -2.0052    1.2412 C   0  0  0  0  0  0  0  0  0  0  0  0
    7.2290   -1.1604    1.8955 C   0  0  0  0  0  0  0  0  0  0  0  0
    3.5882   -1.9961    1.6470 C   0  0  0  0  0  0  0  0  0  0  0  0
    1.6366    2.7516   -0.1577 C   0  0  0  0  0  0  0  0  0  0  0  0
    5.2602    1.7517    3.7854 C   0  0  0  0  0  0  0  0  0  0  0  0
    0.3885    3.6239   -0.2434 N   0  0  0  0  0  0  0  0  0  0  0  0
    6.9767    2.7074    5.1165 O   0  0  0  0  0  0  0  0  0  0  0  0
    7.5711    0.0782    2.4573 N   0  0  0  0  0  0  0  0  0  0  0  0
    8.8759    2.3009    2.5190 C   0  0  0  0  0  0  0  0  0  0  0  0
    2.5030    0.2126    0.2946 C   0  0  0  0  0  0  0  0  0  0  0  0
    4.4853    2.6498    2.7801 C   0  0  0  0  0  0  0  0  0  0  0  0
  1  6  1  0
  1  8  1  0
  1 19  1  0
  2  3  1  0
  2 26  1  0
  3 22  1  0
  3 24  2  0
  4 11  1  0
  5 26  1  0
  6 17  1  0
  7 17  1  0
  8  9  1  0
  8 20  2  0
  9 27  2  0
 10 13  1  0
 10 21  1  0
 10 27  1  0
 11 19  1  0
 12 25  1  0
 12 26  1  0
 14 26  1  0
 15 18  2  0
 15 27  1  0
 16 21  2  0
 17 20  1  0
 18 20  1  0
 19 25  1  0
 21 23  1  0
 22 28  1  0
M  END
$$$$
