
     RDKit          3D

 28 28  0  0  0  0  0  0  0  0999 V2000
    4.2569    3.8903    1.8968 C   0  0  0  0  0  0  0  0  0  0  0  0
    1.0121    2.8136   -0.4709 N   0  0  0  0  0  0  0  0  0  0  0  0
    7.4428   -2.5546    2.0963 C   0  0  0  0  0  0  0  0  0  0  0  0
    2.8730   -2.3163    4.2477 C   0  0  0  0  0  0  0  0  0  0  0  0
    1.2441   -2.8233    2.7315 O   0  0  0  0  0  0  0  0  0  0  0  0
    3.6328    1.5655    1.3652 N   0  0  0  0  0  0  0  0  0  0  0  0
    4.2074   -1.0848    1.0753 C   0  0  0  0  0  0  0  0  0  0  0  0
    8.3737   -1.3067    0.0998 C   0  0  0  0  0  0  0  0  0  0  0  0
    6.2360    4.2554    3.9768 O   0  0  0  0  0  0  0  0  0  0  0  0
    3.7452   -3.0458    2.3056 N   0  0  0  0  0  0  0  0  0  0  0  0
    6.1903   -2.2265    1.6983 N   0  0  0  0  0  0  0  0  0  0  0  0
    2.4225    2.9598    0.0741 O   0  0  0  0  0  0  0  0  0  0  0  0
    2.5157   -2.7908    2.9942 C   0  0  0  0  0  0  0  0  0  0  0  0
    2.6536    1.7439    0.5685 C   0  0  0  0  0  0  0  0  0  0  0  0
    9.4491   -3.4105    0.8712 C   0  0  0  0  0  0  0  0  0  0  0  0
    4.8264   -2.1632    2.0356 C   0  0  0  0  0  0  0  0  0  0  0  0
    4.3309    2.5248    2.0761 C   0  0  0  0  0  0  0  0  0  0  0  0
    0.5719    1.5284   -0.2878 C   0  0  0  0  0  0  0  0  0  0  0  0
    8.6312   -2.2230    1.2566 C   0  0  0  0  0  0  0  0  0  0  0  0
    5.3889    1.8035    2.8775 C   0  0  0  0  0  0  0  0  0  0  0  0
   -0.6282    1.2365   -0.3071 O   0  0  0  0  0  0  0  0  0  0  0  0
    1.8429   -0.5952    0.2784 C   0  0  0  0  0  0  0  0  0  0  0  0
    2.7452   -1.1878    0.9532 C   0  0  0  0  0  0  0  0  0  0  0  0
    7.3716    3.0868    3.8010 P   0  0  0  0  0  0  0  0  0  0  0  0
    7.2526    2.3776    5.1737 O   0  0  0  0  0  0  0  0  0  0  0  0
    8.7149    3.5490    3.5909 O   0  0  0  0  0  0  0  0  0  0  0  0
    1.6540    0.7824    0.1874 C   0  0  0  0  0  0  0  0  0  0  0  0
    6.7741    2.3800    2.4137 O   0  0  0  0  0  0  0  0  0  0  0  0
  1 17  1  0
  2 12  1  0
  2 18  1  0
  3 11  2  3
  3 19  1  0
  4 13  1  0
  5 13  2  0
  6 14  1  0
  6 17  2  3
  7 16  1  0
  7 23  1  0
  8 19  1  0
  9 24  1  0
 10 13  1  0
 10 16  2  3
 11 16  1  0
 12 14  1  0
 14 27  1  0
 15 19  1  0
 17 20  1  0
 18 21  2  0
 18 27  1  0
 20 28  1  0
 22 23  1  0
 22 27  1  0
 24 25  1  0
 24 26  1  0
 24 28  1  0
M  END
$$$$
