
     RDKit          3D

 25 27  0  0  0  0  0  0  0  0999 V2000
    4.8054    2.9239    3.0351 C   0  0  0  0  0  0  0  0  0  0  0  0
    1.4390    1.1861   -0.1013 C   0  0  0  0  0  0  0  0  0  0  0  0
    6.8411   -2.9794    2.4383 C   0  0  0  0  0  0  0  0  0  0  0  0
    9.1013   -3.1299    0.4452 C   0  0  0  0  0  0  0  0  0  0  0  0
    4.1056    2.0862    1.9677 C   0  0  0  0  0  0  0  0  0  0  0  0
    5.8901   -1.2180    1.0514 C   0  0  0  0  0  0  0  0  0  0  0  0
    0.3643    1.5577   -0.8987 O   0  0  0  0  0  0  0  0  0  0  0  0
    2.5435   -1.0885    0.8052 C   0  0  0  0  0  0  0  0  0  0  0  0
    1.4414    3.5755   -0.1242 N   0  0  0  0  0  0  0  0  0  0  0  0
    7.4175    2.7166    3.1854 P   0  0  0  0  0  0  0  0  0  0  0  0
    8.3240   -1.7528    0.4415 C   0  0  0  0  0  0  0  0  0  0  0  0
    3.3888   -2.7114    2.3950 C   0  0  0  0  0  0  0  0  0  0  0  0
    4.5653   -1.8414    1.8223 C   0  0  0  0  0  0  0  0  0  0  0  0
    5.2471   -2.9465    2.6458 C   0  0  0  0  0  0  0  0  0  0  0  0
    2.0426   -0.1517   -0.2192 C   0  0  0  0  0  0  0  0  0  0  0  0
    2.2601    2.4413    0.2764 C   0  0  0  0  0  0  0  0  0  0  0  0
    7.2190   -1.8254    1.4849 C   0  0  0  0  0  0  0  0  0  0  0  0
    6.9621    1.9083    4.3989 O   0  0  0  0  0  0  0  0  0  0  0  0
    3.6657   -0.5516    1.6218 C   0  0  0  0  0  0  0  0  0  0  0  0
    8.3994    3.6533    3.6829 O   0  0  0  0  0  0  0  0  0  0  0  0
    7.8350    2.0505    1.8339 O   0  0  0  0  0  0  0  0  0  0  0  0
    6.0872    3.5585    2.5689 O   0  0  0  0  0  0  0  0  0  0  0  0
    4.0312    0.8082    1.3513 O   0  0  0  0  0  0  0  0  0  0  0  0
    3.3128    3.0856    1.2072 C   0  0  0  0  0  0  0  0  0  0  0  0
    2.1853   -2.2619    1.5613 O   0  0  0  0  0  0  0  0  0  0  0  0
  1  5  1  0
  1 22  1  0
  2  7  1  0
  2 15  1  0
  2 16  1  0
  3 14  1  0
  3 17  1  0
  4 11  1  0
  5 23  1  0
  5 24  1  0
  6 13  1  0
  6 17  1  0
  8 15  1  0
  8 19  1  0
  8 25  1  0
  9 16  1  0
 10 18  1  0
 10 20  1  0
 10 21  1  0
 10 22  1  0
 11 17  1  0
 12 13  1  0
 12 25  1  0
 13 14  1  0
 13 19  1  0
 16 24  1  0
 19 23  1  0
M  END
$$$$
