
     RDKit          3D

 33 34  0  0  0  0  0  0  0  0999 V2000
    4.9163   -1.1966    1.1428 C   0  0  0  0  0  0  0  0  0  0  0  0
    5.7543   -1.9256    2.1356 N   0  0  0  0  0  0  0  0  0  0  0  0
    2.5548    2.8241    0.6926 N   0  0  0  0  0  0  0  0  0  0  0  0
    2.9368   -2.3917    2.1310 C   0  0  0  0  0  0  0  0  0  0  0  0
    1.2204    1.3051   -0.4645 C   0  0  0  0  0  0  0  0  0  0  0  0
    2.3764    0.6943    0.0589 N   0  0  0  0  0  0  0  0  0  0  0  0
    3.0797    1.5390    0.9536 C   0  0  0  0  0  0  0  0  0  0  0  0
    9.1961   -4.9592    3.7075 C   0  0  0  0  0  0  0  0  0  0  0  0
    5.7138    3.6122    2.9493 P   0  0  0  0  0  0  0  0  0  0  0  0
    8.8271   -3.8906    2.7687 C   0  0  0  0  0  0  0  0  0  0  0  0
    1.4462    2.7904   -0.1675 C   0  0  0  0  0  0  0  0  0  0  0  0
    9.6345   -3.6517    1.4649 C   0  0  0  0  0  0  0  0  0  0  0  0
    6.1276    2.4507    2.0207 O   0  0  0  0  0  0  0  0  0  0  0  0
    4.9895    4.3636    1.6554 O   0  0  0  0  0  0  0  0  0  0  0  0
    7.1388   -1.9002    2.7857 C   0  0  0  0  0  0  0  0  0  0  0  0
    1.6008   -2.9410    2.1783 C   0  0  0  0  0  0  0  0  0  0  0  0
    5.1528    4.5077    4.1757 O   0  0  0  0  0  0  0  0  0  0  0  0
    9.0396    1.3534    4.6067 C   0  0  0  0  0  0  0  0  0  0  0  0
    6.9132   -0.0096    4.5956 C   0  0  0  0  0  0  0  0  0  0  0  0
    7.4704   -3.2171    2.8168 C   0  0  0  0  0  0  0  0  0  0  0  0
    3.3013   -4.0926    3.7682 O   0  0  0  0  0  0  0  0  0  0  0  0
    6.8369    2.4169    5.0400 C   0  0  0  0  0  0  0  0  0  0  0  0
    7.2248    3.3885    3.9718 O   0  0  0  0  0  0  0  0  0  0  0  0
    6.2682   -4.0120    2.7046 N   0  0  0  0  0  0  0  0  0  0  0  0
    5.2859   -3.1148    2.5164 C   0  0  0  0  0  0  0  0  0  0  0  0
    0.3437    3.6053   -0.0777 O   0  0  0  0  0  0  0  0  0  0  0  0
    7.6611    1.2219    5.0985 C   0  0  0  0  0  0  0  0  0  0  0  0
   -0.0696    1.0047   -0.1498 O   0  0  0  0  0  0  0  0  0  0  0  0
    7.7972   -0.8041    3.6259 C   0  0  0  0  0  0  0  0  0  0  0  0
    3.8581   -3.3439    2.7580 C   0  0  0  0  0  0  0  0  0  0  0  0
    3.2373   -0.1815   -0.7773 C   0  0  0  0  0  0  0  0  0  0  0  0
    0.8302   -2.6378    3.1542 N   0  0  0  0  0  0  0  0  0  0  0  0
    3.4232   -1.3863    1.1986 C   0  0  0  0  0  0  0  0  0  0  0  0
  1  2  1  0
  1 33  1  0
  2 15  1  0
  2 25  1  0
  3  7  1  0
  3 11  1  0
  4 16  1  0
  4 30  1  0
  4 33  2  0
  5  6  1  0
  5 11  1  0
  5 28  1  0
  6  7  1  0
  6 31  1  0
  8 10  1  0
  9 13  1  0
  9 14  1  0
  9 17  1  0
  9 23  1  0
 10 12  1  0
 10 20  1  0
 11 26  2  0
 15 20  1  0
 15 29  1  0
 16 32  2  0
 18 27  1  0
 19 27  1  0
 19 29  1  0
 20 24  1  0
 21 30  1  0
 22 23  1  0
 22 27  1  0
 24 25  2  0
 25 30  1  0
M  END
$$$$
