
     RDKit          3D

 27 28  0  0  0  0  0  0  0  0999 V2000
    5.2222   -2.7416    2.0392 C   0  0  0  0  0  0  0  0  0  0  0  0
    6.7254   -4.8922    2.5738 O   0  0  0  0  0  0  0  0  0  0  0  0
    5.3408   -3.1217    3.4077 C   0  0  0  0  0  0  0  0  0  0  0  0
    8.7568    0.1916    1.6767 C   0  0  0  0  0  0  0  0  0  0  0  0
    1.9257    0.1907    0.3553 C   0  0  0  0  0  0  0  0  0  0  0  0
    5.8219   -1.4629    1.6340 C   0  0  0  0  0  0  0  0  0  0  0  0
    7.6887   -2.6294    2.9625 C   0  0  0  0  0  0  0  0  0  0  0  0
    4.3392   -4.0175    3.7733 O   0  0  0  0  0  0  0  0  0  0  0  0
    3.7769    1.6580    1.2984 C   0  0  0  0  0  0  0  0  0  0  0  0
    0.6181    2.0088   -0.3764 C   0  0  0  0  0  0  0  0  0  0  0  0
    2.6169    1.4220    0.6167 C   0  0  0  0  0  0  0  0  0  0  0  0
    3.4434   -1.3760    1.0805 C   0  0  0  0  0  0  0  0  0  0  0  0
    6.7664   -3.7440    3.4903 C   0  0  0  0  0  0  0  0  0  0  0  0
    2.3129    3.7132   -0.0807 N   0  0  0  0  0  0  0  0  0  0  0  0
    0.6445    0.5291   -0.1812 C   0  0  0  0  0  0  0  0  0  0  0  0
    9.0323   -0.8930    0.5684 C   0  0  0  0  0  0  0  0  0  0  0  0
    7.1039   -1.5666    2.1678 O   0  0  0  0  0  0  0  0  0  0  0  0
    7.3169    3.3432    3.9266 O   0  0  0  0  0  0  0  0  0  0  0  0
    8.2478    0.6023    3.1683 C   0  0  0  0  0  0  0  0  0  0  0  0
    9.7919    2.8856    4.0194 O   0  0  0  0  0  0  0  0  0  0  0  0
    4.6290    0.6838    1.7164 C   0  0  0  0  0  0  0  0  0  0  0  0
    2.2933   -1.0610    0.6332 N   0  0  0  0  0  0  0  0  0  0  0  0
    4.5088   -0.6459    1.3899 N   0  0  0  0  0  0  0  0  0  0  0  0
    8.7149    2.5975    1.7352 O   0  0  0  0  0  0  0  0  0  0  0  0
    1.8333    2.5112    0.0622 C   0  0  0  0  0  0  0  0  0  0  0  0
    8.4535    2.4401    3.3322 P   0  0  0  0  0  0  0  0  0  0  0  0
    9.4107    1.4891    1.1154 C   0  0  0  0  0  0  0  0  0  0  0  0
  1  3  1  0
  1  6  1  0
  2 13  1  0
  3  8  1  0
  3 13  1  0
  4 16  1  0
  4 19  1  0
  4 27  1  0
  5 11  2  0
  5 15  1  0
  5 22  1  0
  6 17  1  0
  6 23  1  0
  7 13  1  0
  7 17  1  0
  9 11  1  0
  9 21  2  0
 10 15  1  0
 10 25  1  0
 11 25  1  0
 12 22  2  0
 12 23  1  0
 14 25  2  0
 18 26  1  0
 20 26  1  0
 21 23  1  0
 24 26  1  0
 24 27  1  0
M  END
$$$$
