
     RDKit          3D

 28 29  0  0  0  0  0  0  0  0999 V2000
    6.6295   -2.2471    1.9689 C   0  0  0  0  0  0  0  0  0  0  0  0
    2.6635    2.3535    0.2541 C   0  0  0  0  0  0  0  0  0  0  0  0
    4.2174    0.3082    0.9689 C   0  0  0  0  0  0  0  0  0  0  0  0
    7.4564    0.2787    2.1644 C   0  0  0  0  0  0  0  0  0  0  0  0
    5.3031   -1.8290    2.2534 O   0  0  0  0  0  0  0  0  0  0  0  0
    9.9170    2.8828    2.8754 O   0  0  0  0  0  0  0  0  0  0  0  0
    5.4328    3.1594    2.0947 N   0  0  0  0  0  0  0  0  0  0  0  0
    1.9059    0.1391    0.3859 C   0  0  0  0  0  0  0  0  0  0  0  0
    0.4700    1.8377   -0.3469 C   0  0  0  0  0  0  0  0  0  0  0  0
    2.6094   -2.7001    2.5744 C   0  0  0  0  0  0  0  0  0  0  0  0
    7.4279    2.7832    3.9001 C   0  0  0  0  0  0  0  0  0  0  0  0
    0.7138    0.5960   -0.0693 N   0  0  0  0  0  0  0  0  0  0  0  0
    7.4247   -1.0994    1.3170 C   0  0  0  0  0  0  0  0  0  0  0  0
    2.9371    1.0250    0.5346 C   0  0  0  0  0  0  0  0  0  0  0  0
    8.8844   -1.5590    0.9727 C   0  0  0  0  0  0  0  0  0  0  0  0
    1.0717   -2.8208    2.4473 O   0  0  0  0  0  0  0  0  0  0  0  0
    9.0805    2.3345    2.1231 C   0  0  0  0  0  0  0  0  0  0  0  0
    1.4454    2.7338   -0.1999 N   0  0  0  0  0  0  0  0  0  0  0  0
   -0.7739    2.2172   -0.6529 O   0  0  0  0  0  0  0  0  0  0  0  0
    9.1474    2.2924    0.8860 O   0  0  0  0  0  0  0  0  0  0  0  0
    3.0870   -1.8249    1.4605 C   0  0  0  0  0  0  0  0  0  0  0  0
    4.4132   -1.1177    1.2600 C   0  0  0  0  0  0  0  0  0  0  0  0
    5.3412    4.6896    4.1224 O   0  0  0  0  0  0  0  0  0  0  0  0
    4.9697    2.3578    4.7937 O   0  0  0  0  0  0  0  0  0  0  0  0
    7.7510    1.8253    2.6847 C   0  0  0  0  0  0  0  0  0  0  0  0
    5.6885    3.2929    3.7726 S   0  0  0  0  0  0  0  0  0  0  0  0
    2.0307   -1.1561    0.8392 N   0  0  0  0  0  0  0  0  0  0  0  0
    9.0554   -3.0778    0.7474 C   0  0  0  0  0  0  0  0  0  0  0  0
  1  5  1  0
  1 13  1  0
  2 14  1  0
  2 18  2  0
  3 14  2  0
  3 22  1  0
  4 13  1  0
  4 25  1  0
  5 22  1  0
  6 17  2  0
  7 26  1  0
  8 12  2  0
  8 14  1  0
  8 27  1  0
  9 12  1  0
  9 18  1  0
  9 19  2  0
 10 16  1  0
 10 21  1  0
 11 25  1  0
 11 26  1  0
 13 15  1  0
 15 28  1  0
 17 20  1  0
 17 25  1  0
 21 22  1  0
 21 27  1  0
 23 26  1  0
 24 26  1  0
M  END
$$$$
