
     RDKit          3D

 21 21  0  0  0  0  0  0  0  0999 V2000
  -11.3382    4.7068  -30.5094 O   0  0  0  0  0  0  0  0  0  0  0  0
   -9.7081    2.4370  -32.1411 C   0  0  0  0  0  0  0  0  0  0  0  0
   -7.2169    4.5707  -30.7502 C   0  0  0  0  0  0  0  0  0  0  0  0
   -7.8088    4.9744  -28.4381 O   0  0  0  0  0  0  0  0  0  0  0  0
   -8.6148    6.0091  -28.0285 C   0  0  0  0  0  0  0  0  0  0  0  0
  -10.7705    5.2706  -26.9297 O   0  0  0  0  0  0  0  0  0  0  0  0
  -10.6263    3.5429  -30.1096 C   0  0  0  0  0  0  0  0  0  0  0  0
   -7.1247    2.1431  -31.8939 P   0  0  0  0  0  0  0  0  0  0  0  0
   -9.8944    3.9884  -28.7932 C   0  0  0  0  0  0  0  0  0  0  0  0
   -8.9987    5.1512  -29.2142 C   0  0  0  0  0  0  0  0  0  0  0  0
   -6.8270    3.2452  -30.5648 O   0  0  0  0  0  0  0  0  0  0  0  0
   -9.4502    3.4622  -31.0636 C   0  0  0  0  0  0  0  0  0  0  0  0
   -7.2905    3.3579  -33.0674 O   0  0  0  0  0  0  0  0  0  0  0  0
   -5.6427    1.7467  -32.3629 O   0  0  0  0  0  0  0  0  0  0  0  0
   -9.8686    4.1138  -27.2267 C   0  0  0  0  0  0  0  0  0  0  0  0
   -8.7138    4.8171  -30.7384 C   0  0  0  0  0  0  0  0  0  0  0  0
   -8.9886    6.1022  -31.4041 O   0  0  0  0  0  0  0  0  0  0  0  0
  -10.9903    1.9962  -32.2615 O   0  0  0  0  0  0  0  0  0  0  0  0
  -11.4498    2.4738  -29.7619 O   0  0  0  0  0  0  0  0  0  0  0  0
   -7.3067    0.8593  -30.9040 O   0  0  0  0  0  0  0  0  0  0  0  0
   -8.7142    1.5664  -32.7012 O   0  0  0  0  0  0  0  0  0  0  0  0
  1  7  1  0
  2 12  1  0
  2 18  2  0
  2 21  1  0
  3 11  1  0
  3 16  1  0
  4  5  1  0
  5 10  1  0
  6 15  1  0
  7  9  1  0
  7 12  1  0
  7 19  1  0
  8 11  1  0
  8 13  1  0
  8 14  1  0
  8 20  1  0
  9 10  1  0
  9 15  1  0
 10 16  1  0
 12 16  1  0
 16 17  1  0
M  END
$$$$
