
     RDKit          3D

 26 27  0  0  0  0  0  0  0  0999 V2000
   -6.3555   -2.5808  -31.7987 C   0  0  0  0  0  0  0  0  0  0  0  0
   -8.9411    4.2067  -29.4259 C   0  0  0  0  0  0  0  0  0  0  0  0
   -8.1784    7.0870  -27.0934 C   0  0  0  0  0  0  0  0  0  0  0  0
   -6.3001    3.8035  -30.1902 O   0  0  0  0  0  0  0  0  0  0  0  0
   -7.1917    2.3553  -32.2261 P   0  0  0  0  0  0  0  0  0  0  0  0
   -5.8000    1.8572  -32.2832 O   0  0  0  0  0  0  0  0  0  0  0  0
   -9.7660    4.7352  -27.1155 O   0  0  0  0  0  0  0  0  0  0  0  0
   -3.4763   -3.9821  -30.0539 O   0  0  0  0  0  0  0  0  0  0  0  0
   -4.6043   -4.0004  -30.5869 C   0  0  0  0  0  0  0  0  0  0  0  0
   -7.6139   -0.0901  -32.5726 C   0  0  0  0  0  0  0  0  0  0  0  0
  -10.8083    4.1234  -28.0868 C   0  0  0  0  0  0  0  0  0  0  0  0
   -5.2202   -5.0836  -30.8516 O   0  0  0  0  0  0  0  0  0  0  0  0
   -9.0427    5.8912  -27.6283 C   0  0  0  0  0  0  0  0  0  0  0  0
   -8.6498    4.0445  -30.9127 C   0  0  0  0  0  0  0  0  0  0  0  0
   -4.7450   -1.6452  -30.2149 O   0  0  0  0  0  0  0  0  0  0  0  0
   -8.0968    1.0267  -31.9011 C   0  0  0  0  0  0  0  0  0  0  0  0
   -7.5446    3.2566  -33.3972 O   0  0  0  0  0  0  0  0  0  0  0  0
  -10.8803    3.6138  -30.6611 C   0  0  0  0  0  0  0  0  0  0  0  0
   -7.2112    3.5377  -31.0138 C   0  0  0  0  0  0  0  0  0  0  0  0
   -5.2650   -2.6483  -30.9530 C   0  0  0  0  0  0  0  0  0  0  0  0
  -10.4300    4.4538  -29.4573 C   0  0  0  0  0  0  0  0  0  0  0  0
   -8.2743    5.4087  -28.8727 C   0  0  0  0  0  0  0  0  0  0  0  0
  -11.6255    2.4920  -30.1749 O   0  0  0  0  0  0  0  0  0  0  0  0
   -8.2750    6.4132  -29.8298 O   0  0  0  0  0  0  0  0  0  0  0  0
   -6.8120   -1.1512  -31.9074 C   0  0  0  0  0  0  0  0  0  0  0  0
   -9.6657    3.0776  -31.3332 O   0  0  0  0  0  0  0  0  0  0  0  0
  1 20  1  0
  1 25  1  0
  2 14  1  0
  2 21  1  0
  2 22  1  0
  3 13  1  0
  4 19  2  0
  5  6  1  0
  5 16  1  0
  5 17  1  0
  5 19  1  0
  7 11  1  0
  7 13  1  0
  8  9  2  0
  9 12  1  0
  9 20  1  0
 10 16  1  0
 10 25  1  0
 11 21  1  0
 13 22  1  0
 14 19  1  0
 14 26  1  0
 15 20  1  0
 18 21  1  0
 18 23  1  0
 18 26  1  0
 22 24  1  0
M  END
$$$$
