
     RDKit          3D

 25 27  0  0  0  0  0  0  0  0999 V2000
    5.6865   -0.9173    1.2475 C   0  0  0  0  0  0  0  0  0  0  0  0
    3.2687    0.0136    0.7995 C   0  0  0  0  0  0  0  0  0  0  0  0
    8.1136   -1.2862    0.9710 C   0  0  0  0  0  0  0  0  0  0  0  0
    3.2349    2.4894    1.1639 C   0  0  0  0  0  0  0  0  0  0  0  0
    1.9779    0.1202    0.1846 C   0  0  0  0  0  0  0  0  0  0  0  0
    5.5414    3.3167    3.8000 P   0  0  0  0  0  0  0  0  0  0  0  0
    4.9356    4.4424    2.9610 O   0  0  0  0  0  0  0  0  0  0  0  0
    2.3537    2.9485    0.4173 C   0  0  0  0  0  0  0  0  0  0  0  0
    4.4476   -2.8536    2.8255 C   0  0  0  0  0  0  0  0  0  0  0  0
    7.0611    3.5983    3.9310 O   0  0  0  0  0  0  0  0  0  0  0  0
    3.6002   -2.2295    1.8345 C   0  0  0  0  0  0  0  0  0  0  0  0
   -0.3328    1.0336   -0.1285 O   0  0  0  0  0  0  0  0  0  0  0  0
    6.0187    0.2664    1.9614 C   0  0  0  0  0  0  0  0  0  0  0  0
    4.9572    1.1940    2.2421 C   0  0  0  0  0  0  0  0  0  0  0  0
    3.7918    1.2669    1.4028 C   0  0  0  0  0  0  0  0  0  0  0  0
    1.1487    2.5393    0.0199 N   0  0  0  0  0  0  0  0  0  0  0  0
    5.2082    1.9899    3.2253 O   0  0  0  0  0  0  0  0  0  0  0  0
    4.9562    3.1186    5.1218 O   0  0  0  0  0  0  0  0  0  0  0  0
    4.9739   -4.0975    2.5492 O   0  0  0  0  0  0  0  0  0  0  0  0
    4.2131   -1.1581    0.9185 C   0  0  0  0  0  0  0  0  0  0  0  0
    6.8193   -1.5847    0.9457 C   0  0  0  0  0  0  0  0  0  0  0  0
    8.4401   -0.0459    1.6383 C   0  0  0  0  0  0  0  0  0  0  0  0
    7.3686    0.6927    2.1518 C   0  0  0  0  0  0  0  0  0  0  0  0
   -0.0568    3.5657   -0.1220 C   0  0  0  0  0  0  0  0  0  0  0  0
    1.0062    1.1366   -0.0865 C   0  0  0  0  0  0  0  0  0  0  0  0
  1 13  1  0
  1 20  1  0
  1 21  2  0
  2  5  2  0
  2 15  1  0
  2 20  1  0
  3 21  1  0
  3 22  1  0
  4  8  1  0
  4 15  2  0
  5 25  1  0
  6  7  1  0
  6 10  1  0
  6 17  1  0
  6 18  1  0
  8 16  1  0
  9 11  1  0
  9 19  1  0
 11 20  1  0
 12 25  2  0
 13 14  1  0
 13 23  1  0
 14 15  1  0
 14 17  1  0
 16 24  1  0
 16 25  1  0
 22 23  2  0
M  END
$$$$
