
     RDKit          3D

 31 32  0  0  0  0  0  0  0  0999 V2000
    2.1190    0.1278    0.3747 C   0  0  0  0  0  0  0  0  0  0  0  0
    5.2863    4.7322    4.2314 O   0  0  0  0  0  0  0  0  0  0  0  0
    9.1769   -3.0685    0.4390 C   0  0  0  0  0  0  0  0  0  0  0  0
    3.9725   -1.2788    1.7989 C   0  0  0  0  0  0  0  0  0  0  0  0
    8.7475   -1.7240   -0.0575 C   0  0  0  0  0  0  0  0  0  0  0  0
    5.0042    4.5063    1.5745 O   0  0  0  0  0  0  0  0  0  0  0  0
    6.2687   -1.4488    2.9643 C   0  0  0  0  0  0  0  0  0  0  0  0
    3.2078    0.9088    0.9515 C   0  0  0  0  0  0  0  0  0  0  0  0
   10.2644   -3.0921    1.2486 O   0  0  0  0  0  0  0  0  0  0  0  0
    0.0695    1.5115   -0.1243 N   0  0  0  0  0  0  0  0  0  0  0  0
    4.1983    0.0967    1.5313 C   0  0  0  0  0  0  0  0  0  0  0  0
    4.9340   -2.1423    2.6116 C   0  0  0  0  0  0  0  0  0  0  0  0
    2.7664   -1.8339    1.4949 N   0  0  0  0  0  0  0  0  0  0  0  0
    7.7887    3.6392    3.9966 O   0  0  0  0  0  0  0  0  0  0  0  0
    1.0559    0.6308   -0.1283 C   0  0  0  0  0  0  0  0  0  0  0  0
    7.8646   -1.0447    0.9635 C   0  0  0  0  0  0  0  0  0  0  0  0
    2.1031   -1.2116    0.6442 C   0  0  0  0  0  0  0  0  0  0  0  0
    6.2164    0.0056    3.4629 N   0  0  0  0  0  0  0  0  0  0  0  0
    5.4895    0.1085    4.8359 C   0  0  0  0  0  0  0  0  0  0  0  0
    2.9832    2.3395    0.8922 C   0  0  0  0  0  0  0  0  0  0  0  0
   -0.0601    3.7675   -0.3074 N   0  0  0  0  0  0  0  0  0  0  0  0
    2.0105    2.8957    0.3157 N   0  0  0  0  0  0  0  0  0  0  0  0
    7.3846   -2.0205    2.0722 C   0  0  0  0  0  0  0  0  0  0  0  0
    4.9785    4.1783    3.0302 C   0  0  0  0  0  0  0  0  0  0  0  0
    4.5419   -2.9908    3.6287 O   0  0  0  0  0  0  0  0  0  0  0  0
    8.9098   -1.0288   -1.3605 C   0  0  0  0  0  0  0  0  0  0  0  0
    5.2222    2.8477    3.4085 C   0  0  0  0  0  0  0  0  0  0  0  0
    7.1779    1.2154    3.2738 C   0  0  0  0  0  0  0  0  0  0  0  0
    0.7243    2.7876   -0.0626 C   0  0  0  0  0  0  0  0  0  0  0  0
    1.9734   -2.9022    2.3077 C   0  0  0  0  0  0  0  0  0  0  0  0
    6.7514    2.7082    3.5175 C   0  0  0  0  0  0  0  0  0  0  0  0
  1  8  1  0
  1 15  1  0
  1 17  1  0
  2 24  2  0
  3  5  1  0
  3  9  1  0
  4 11  2  0
  4 12  1  0
  4 13  1  0
  5 16  1  0
  5 26  1  0
  6 24  1  0
  7 12  1  0
  7 18  1  0
  7 23  1  0
  8 11  1  0
  8 20  2  0
 10 15  1  0
 10 29  1  0
 12 25  1  0
 13 17  1  0
 13 30  1  0
 14 31  1  0
 16 23  1  0
 18 19  1  0
 18 28  1  0
 20 22  1  0
 21 29  2  0
 22 29  1  0
 24 27  1  0
 27 31  1  0
 28 31  1  0
M  END
$$$$
