
     RDKit          3D

 28 30  0  0  0  0  0  0  0  0999 V2000
    5.7263   -1.6603    1.6910 C   0  0  0  0  0  0  0  0  0  0  0  0
    6.8386    2.0505    2.7913 C   0  0  0  0  0  0  0  0  0  0  0  0
    8.1277    2.7755    3.0996 C   0  0  0  0  0  0  0  0  0  0  0  0
    8.8727   -1.0097    0.0765 O   0  0  0  0  0  0  0  0  0  0  0  0
    9.1198    2.3866    0.9188 O   0  0  0  0  0  0  0  0  0  0  0  0
    5.4944   -2.8213    2.4994 C   0  0  0  0  0  0  0  0  0  0  0  0
    3.1988   -3.9093    3.0019 O   0  0  0  0  0  0  0  0  0  0  0  0
    4.5028   -1.1895    1.1195 C   0  0  0  0  0  0  0  0  0  0  0  0
    4.0668   -0.1358    0.4146 C   0  0  0  0  0  0  0  0  0  0  0  0
    1.3433    1.3436   -0.2637 C   0  0  0  0  0  0  0  0  0  0  0  0
    8.1791   -1.7316    1.0873 C   0  0  0  0  0  0  0  0  0  0  0  0
    8.7097    0.5061    2.5956 C   0  0  0  0  0  0  0  0  0  0  0  0
   -0.1436    1.0981   -0.0545 O   0  0  0  0  0  0  0  0  0  0  0  0
    8.5041    3.3199    4.2349 O   0  0  0  0  0  0  0  0  0  0  0  0
    2.0420   -0.8861    0.4549 C   0  0  0  0  0  0  0  0  0  0  0  0
    2.8588    3.7617   -0.2171 N   0  0  0  0  0  0  0  0  0  0  0  0
    4.1909   -3.1885    2.2256 N   0  0  0  0  0  0  0  0  0  0  0  0
    2.2611   -1.9388    1.2962 C   0  0  0  0  0  0  0  0  0  0  0  0
    6.9779   -0.9722    1.6474 C   0  0  0  0  0  0  0  0  0  0  0  0
    3.5286   -2.0741    1.5771 C   0  0  0  0  0  0  0  0  0  0  0  0
    1.6127    2.7583   -0.0487 C   0  0  0  0  0  0  0  0  0  0  0  0
    5.7212    2.5346    3.8167 C   0  0  0  0  0  0  0  0  0  0  0  0
    0.1962    3.6459   -0.1164 N   0  0  0  0  0  0  0  0  0  0  0  0
    6.0725    3.1449    4.9967 O   0  0  0  0  0  0  0  0  0  0  0  0
    7.1773    0.4817    2.2670 N   0  0  0  0  0  0  0  0  0  0  0  0
    9.1453    1.9874    2.2611 C   0  0  0  0  0  0  0  0  0  0  0  0
    2.7322    0.0725    0.1541 C   0  0  0  0  0  0  0  0  0  0  0  0
    4.6065    3.0620    3.0165 C   0  0  0  0  0  0  0  0  0  0  0  0
  1  6  1  0
  1  8  1  0
  1 19  1  0
  2  3  1  0
  2 22  1  0
  2 25  1  0
  3 14  1  0
  3 26  1  0
  4 11  1  0
  5 26  1  0
  6 17  1  0
  7 17  1  0
  8  9  1  0
  8 20  2  0
  9 27  1  0
 10 13  1  0
 10 21  1  0
 10 27  1  0
 11 19  1  0
 12 25  1  0
 12 26  1  0
 15 18  1  0
 15 27  1  0
 16 21  2  0
 17 20  1  0
 18 20  1  0
 19 25  1  0
 21 23  1  0
 22 24  1  0
 22 28  1  0
M  END
$$$$
