
     RDKit          3D

 32 32  0  0  0  0  0  0  0  0999 V2000
    5.5970    3.4682    3.8961 P   0  0  0  0  0  0  0  0  0  0  0  0
    0.0267    3.8134   -0.2999 N   0  0  0  0  0  0  0  0  0  0  0  0
    0.0421    2.6223   -0.3783 C   0  0  0  0  0  0  0  0  0  0  0  0
    9.3131    2.4302    0.6288 O   0  0  0  0  0  0  0  0  0  0  0  0
   10.5184   -3.1262    1.5413 O   0  0  0  0  0  0  0  0  0  0  0  0
    4.7863   -2.4170    2.8375 N   0  0  0  0  0  0  0  0  0  0  0  0
    3.6694    0.2038    1.3750 C   0  0  0  0  0  0  0  0  0  0  0  0
    1.5124   -2.7491    1.9959 O   0  0  0  0  0  0  0  0  0  0  0  0
    2.8361   -1.0039    1.0774 C   0  0  0  0  0  0  0  0  0  0  0  0
    4.6955    2.8921    5.0469 O   0  0  0  0  0  0  0  0  0  0  0  0
   -1.1247    2.0117   -0.3767 N   0  0  0  0  0  0  0  0  0  0  0  0
    1.9434   -0.6226    0.1709 C   0  0  0  0  0  0  0  0  0  0  0  0
    9.6406    0.1115   -0.1719 C   0  0  0  0  0  0  0  0  0  0  0  0
    7.1669    3.2200    4.3113 O   0  0  0  0  0  0  0  0  0  0  0  0
    5.5832    2.9022    2.3437 O   0  0  0  0  0  0  0  0  0  0  0  0
    1.1755    1.8005   -0.0447 C   0  0  0  0  0  0  0  0  0  0  0  0
    5.6255    1.3370    2.3537 C   0  0  0  0  0  0  0  0  0  0  0  0
    2.3762    2.3138    0.5767 C   0  0  0  0  0  0  0  0  0  0  0  0
   10.2414   -0.7677    0.9347 C   0  0  0  0  0  0  0  0  0  0  0  0
   10.0535    1.6168   -0.0380 C   0  0  0  0  0  0  0  0  0  0  0  0
    9.8137   -2.2412    0.8719 C   0  0  0  0  0  0  0  0  0  0  0  0
    3.1366   -4.2805    3.1424 C   0  0  0  0  0  0  0  0  0  0  0  0
    1.2358    0.4704   -0.1625 N   0  0  0  0  0  0  0  0  0  0  0  0
    2.6778   -2.1929    1.8015 C   0  0  0  0  0  0  0  0  0  0  0  0
    4.7922    0.0809    2.2430 C   0  0  0  0  0  0  0  0  0  0  0  0
    5.1115   -1.1492    2.7551 C   0  0  0  0  0  0  0  0  0  0  0  0
    7.7557   -3.1149    2.0205 C   0  0  0  0  0  0  0  0  0  0  0  0
    5.3124    4.8015    4.1849 O   0  0  0  0  0  0  0  0  0  0  0  0
    8.4342   -2.5365    0.7561 C   0  0  0  0  0  0  0  0  0  0  0  0
    3.2959    1.4673    1.0466 N   0  0  0  0  0  0  0  0  0  0  0  0
    3.6339   -2.9551    2.5273 C   0  0  0  0  0  0  0  0  0  0  0  0
    7.0425    0.9447    2.4069 O   0  0  0  0  0  0  0  0  0  0  0  0
  1 10  1  0
  1 14  1  0
  1 15  1  0
  1 28  1  0
  2  3  2  0
  3 11  1  0
  3 16  1  0
  4 20  1  0
  5 21  1  0
  6 26  1  0
  6 31  1  0
  7  9  1  0
  7 25  1  0
  7 30  1  0
  8 24  1  0
  9 12  1  0
  9 24  1  0
 12 23  1  0
 13 19  1  0
 13 20  1  0
 15 17  1  0
 16 18  1  0
 16 23  2  0
 17 25  1  0
 17 32  2  0
 18 30  2  0
 19 21  1  0
 21 29  1  0
 22 31  1  0
 24 31  1  0
 25 26  2  0
 27 29  1  0
M  END
$$$$
