
     RDKit          3D

 18 17  0  0  0  0  0  0  0  0999 V2000
    2.9659    0.6422    0.3964 C   0  0  0  0  0  0  0  0  0  0  0  0
    1.6542    0.8998   -0.0755 O   0  0  0  0  0  0  0  0  0  0  0  0
    1.4454    2.3434    0.0453 C   0  0  0  0  0  0  0  0  0  0  0  0
    3.7902   -0.6162    0.1467 C   0  0  0  0  0  0  0  0  0  0  0  0
    6.7214   -2.4059    2.1067 C   0  0  0  0  0  0  0  0  0  0  0  0
    8.3020    2.1475    3.1439 C   0  0  0  0  0  0  0  0  0  0  0  0
    0.4158    3.0520   -0.4559 N   0  0  0  0  0  0  0  0  0  0  0  0
    8.7679    1.6463    1.8862 C   0  0  0  0  0  0  0  0  0  0  0  0
    3.4212    1.8008    0.9375 N   0  0  0  0  0  0  0  0  0  0  0  0
    6.5624    3.5965    4.1192 N   0  0  0  0  0  0  0  0  0  0  0  0
   -0.8831    2.2987   -0.3987 C   0  0  0  0  0  0  0  0  0  0  0  0
    8.1761   -2.6990    1.4923 C   0  0  0  0  0  0  0  0  0  0  0  0
    6.3942    2.7645    2.1119 O   0  0  0  0  0  0  0  0  0  0  0  0
    4.3934   -1.3484    1.2854 C   0  0  0  0  0  0  0  0  0  0  0  0
    7.0517    2.8325    3.0970 C   0  0  0  0  0  0  0  0  0  0  0  0
    5.9283   -1.4006    1.2405 C   0  0  0  0  0  0  0  0  0  0  0  0
    2.5913    2.8286    0.6431 C   0  0  0  0  0  0  0  0  0  0  0  0
    5.2289    4.0240    3.8443 C   0  0  0  0  0  0  0  0  0  0  0  0
  1  2  1  0
  1  4  1  0
  1  9  1  0
  2  3  1  0
  3  7  1  0
  3 17  1  0
  4 14  1  0
  5 12  1  0
  5 16  1  0
  6  8  1  0
  6 15  1  0
  7 11  1  0
  9 17  1  0
 10 15  1  0
 10 18  1  0
 13 15  2  0
 14 16  1  0
M  END
$$$$
