
     RDKit          3D

 25 28  0  0  0  0  0  0  0  0999 V2000
    4.6787    3.0426    2.7199 C   0  0  0  0  0  0  0  0  0  0  0  0
    2.3263    1.3847    0.3640 C   0  0  0  0  0  0  0  0  0  0  0  0
    6.9337   -2.8934    2.2592 C   0  0  0  0  0  0  0  0  0  0  0  0
    9.0601   -2.9773    0.3144 C   0  0  0  0  0  0  0  0  0  0  0  0
    3.8025    2.6140    1.6593 C   0  0  0  0  0  0  0  0  0  0  0  0
    5.2815   -1.2868    1.1453 C   0  0  0  0  0  0  0  0  0  0  0  0
   -0.1000    2.1870   -0.7235 N   0  0  0  0  0  0  0  0  0  0  0  0
    2.8686   -1.0914    0.7814 C   0  0  0  0  0  0  0  0  0  0  0  0
    0.7033    3.1018   -0.0814 C   0  0  0  0  0  0  0  0  0  0  0  0
    7.3009    2.8694    3.3046 P   0  0  0  0  0  0  0  0  0  0  0  0
    8.1618   -1.6311    0.3937 C   0  0  0  0  0  0  0  0  0  0  0  0
    1.9704   -2.8367    2.3018 C   0  0  0  0  0  0  0  0  0  0  0  0
    4.5269   -2.3594    1.9088 C   0  0  0  0  0  0  0  0  0  0  0  0
    5.4477   -3.1817    2.6995 C   0  0  0  0  0  0  0  0  0  0  0  0
    1.9667   -0.1117    0.0732 C   0  0  0  0  0  0  0  0  0  0  0  0
    2.1247    2.8186    0.1754 N   0  0  0  0  0  0  0  0  0  0  0  0
    6.8245   -1.6654    1.2678 C   0  0  0  0  0  0  0  0  0  0  0  0
    6.6489    2.9177    4.7898 O   0  0  0  0  0  0  0  0  0  0  0  0
    4.1333   -0.2509    0.9192 C   0  0  0  0  0  0  0  0  0  0  0  0
    8.4409    3.6366    3.7976 O   0  0  0  0  0  0  0  0  0  0  0  0
    7.8122    2.2450    1.8389 O   0  0  0  0  0  0  0  0  0  0  0  0
    6.0120    3.5639    2.3769 O   0  0  0  0  0  0  0  0  0  0  0  0
    3.5790    1.2401    1.1702 C   0  0  0  0  0  0  0  0  0  0  0  0
    3.4254    3.6598    0.5976 C   0  0  0  0  0  0  0  0  0  0  0  0
    3.1673   -2.1820    1.6636 N   0  0  0  0  0  0  0  0  0  0  0  0
  1  5  1  0
  1 22  1  0
  2 15  1  0
  2 16  1  0
  2 23  1  0
  3 14  1  0
  3 17  1  0
  4 11  1  0
  5 23  1  0
  5 24  1  0
  6 13  1  0
  6 17  1  0
  6 19  1  0
  7  9  1  0
  8 15  1  0
  8 19  1  0
  8 25  1  0
  9 16  1  0
 10 18  1  0
 10 20  1  0
 10 21  1  0
 10 22  1  0
 11 17  1  0
 12 25  1  0
 13 14  1  0
 13 25  1  0
 16 24  1  0
 19 23  1  0
M  END
$$$$
