
     RDKit          3D

 24 24  0  0  0  0  0  0  0  0999 V2000
    5.8342   -1.2809    1.3526 C   0  0  0  0  0  0  0  0  0  0  0  0
    6.8853   -2.2650    1.7859 C   0  0  0  0  0  0  0  0  0  0  0  0
    6.0583    3.3795    3.4709 O   0  0  0  0  0  0  0  0  0  0  0  0
   10.7637   -1.6440    1.3430 C   0  0  0  0  0  0  0  0  0  0  0  0
   -0.8825    1.7881   -0.2987 N   0  0  0  0  0  0  0  0  0  0  0  0
    9.4444   -2.4745    1.3994 C   0  0  0  0  0  0  0  0  0  0  0  0
    6.8819    0.3901    2.8777 C   0  0  0  0  0  0  0  0  0  0  0  0
    1.4806    0.5536   -0.0451 C   0  0  0  0  0  0  0  0  0  0  0  0
    8.1658   -0.2182    2.2518 C   0  0  0  0  0  0  0  0  0  0  0  0
    5.4680   -0.0648    2.2803 C   0  0  0  0  0  0  0  0  0  0  0  0
    3.3687    1.9771    1.2522 C   0  0  0  0  0  0  0  0  0  0  0  0
    2.2629   -0.5403    0.0927 C   0  0  0  0  0  0  0  0  0  0  0  0
    3.4831   -0.7870    0.7234 C   0  0  0  0  0  0  0  0  0  0  0  0
    8.2566   -1.6999    1.8712 C   0  0  0  0  0  0  0  0  0  0  0  0
    7.4927    2.9212    3.4413 P   0  0  0  0  0  0  0  0  0  0  0  0
    4.7116   -0.4774    3.5494 O   0  0  0  0  0  0  0  0  0  0  0  0
    9.1602   -3.4272    0.5061 C   0  0  0  0  0  0  0  0  0  0  0  0
    0.1778    2.5949   -0.3010 C   0  0  0  0  0  0  0  0  0  0  0  0
   -0.0145    3.7809   -0.2883 N   0  0  0  0  0  0  0  0  0  0  0  0
    1.4776    1.9726   -0.1084 C   0  0  0  0  0  0  0  0  0  0  0  0
    2.4618    2.7028    0.4645 N   0  0  0  0  0  0  0  0  0  0  0  0
    8.3680    3.1756    4.6032 O   0  0  0  0  0  0  0  0  0  0  0  0
    8.0850    2.6652    2.0817 O   0  0  0  0  0  0  0  0  0  0  0  0
    4.0748    0.5279    1.4234 C   0  0  0  0  0  0  0  0  0  0  0  0
  1  2  1  0
  1 10  1  0
  2 14  1  0
  3 15  1  0
  4  6  1  0
  5 18  2  0
  6 14  1  0
  6 17  2  0
  7  9  1  0
  7 10  1  0
  8 12  1  0
  8 20  1  0
  9 14  1  0
 10 16  1  0
 10 24  1  0
 11 21  1  0
 11 24  1  0
 12 13  1  0
 13 24  1  0
 15 22  1  0
 15 23  1  0
 18 19  1  0
 18 20  1  0
 20 21  1  0
M  END
$$$$
