
     RDKit          3D

 26 26  0  0  0  0  0  0  0  0999 V2000
   97.2956    5.9609  -89.0926 O   0  0  0  0  0  0  0  0  0  0  0  0
  101.0216    6.4785  -90.8899 O   0  0  0  0  0  0  0  0  0  0  0  0
  101.5841    3.7367  -93.7262 C   0  0  0  0  0  0  0  0  0  0  0  0
  103.4241    5.6551  -90.8710 C   0  0  0  0  0  0  0  0  0  0  0  0
  104.8210    2.0508  -91.9757 P   0  0  0  0  0  0  0  0  0  0  0  0
  103.3726    1.9864  -92.6290 O   0  0  0  0  0  0  0  0  0  0  0  0
  102.5273    2.7857  -93.1620 C   0  0  0  0  0  0  0  0  0  0  0  0
   99.6881    6.2836  -88.8951 C   0  0  0  0  0  0  0  0  0  0  0  0
  105.8594    2.0124  -93.1367 O   0  0  0  0  0  0  0  0  0  0  0  0
  104.3773    7.8023  -90.5767 O   0  0  0  0  0  0  0  0  0  0  0  0
  100.3576    3.0806  -93.9456 O   0  0  0  0  0  0  0  0  0  0  0  0
  101.6215    8.9927  -91.2869 C   0  0  0  0  0  0  0  0  0  0  0  0
  101.8892    7.5143  -91.4047 C   0  0  0  0  0  0  0  0  0  0  0  0
   98.4357    6.9470  -90.9954 C   0  0  0  0  0  0  0  0  0  0  0  0
  104.8773    0.8351  -91.0379 O   0  0  0  0  0  0  0  0  0  0  0  0
  101.5093    4.8906  -92.7374 C   0  0  0  0  0  0  0  0  0  0  0  0
   99.7433    6.6035  -90.3158 C   0  0  0  0  0  0  0  0  0  0  0  0
   97.3539    5.8973  -90.5880 C   0  0  0  0  0  0  0  0  0  0  0  0
  100.3970    9.4171  -91.3464 O   0  0  0  0  0  0  0  0  0  0  0  0
  103.3665    5.3635  -89.5300 O   0  0  0  0  0  0  0  0  0  0  0  0
  100.5937    5.7639  -93.2187 O   0  0  0  0  0  0  0  0  0  0  0  0
  102.5876    9.7594  -90.9733 O   0  0  0  0  0  0  0  0  0  0  0  0
  105.0218    3.3363  -91.1590 O   0  0  0  0  0  0  0  0  0  0  0  0
  102.5069    4.8631  -91.7124 O   0  0  0  0  0  0  0  0  0  0  0  0
   98.5238    5.4385  -88.4643 C   0  0  0  0  0  0  0  0  0  0  0  0
  103.3495    7.1573  -91.1797 C   0  0  0  0  0  0  0  0  0  0  0  0
  1 18  1  0
  1 25  1  0
  2 13  1  0
  2 17  1  0
  3  7  1  0
  3 11  1  0
  3 16  1  0
  4 20  1  0
  4 24  1  0
  4 26  1  0
  5  6  1  0
  5  9  1  0
  5 15  1  0
  5 23  1  0
  6  7  1  0
  8 17  1  0
  8 25  1  0
 10 26  1  0
 12 13  1  0
 12 19  2  0
 12 22  1  0
 13 26  1  0
 14 17  1  0
 14 18  1  0
 16 21  2  0
 16 24  1  0
M  END
$$$$
