
     RDKit          3D

 24 25  0  0  0  0  0  0  0  0999 V2000
  103.1955    4.3093  -92.0038 C   0  0  0  0  0  0  0  0  0  0  0  0
  100.7381    2.7277  -93.6063 C   0  0  0  0  0  0  0  0  0  0  0  0
  100.7358    1.8112  -94.7628 C   0  0  0  0  0  0  0  0  0  0  0  0
  103.2482    3.1150  -92.5877 O   0  0  0  0  0  0  0  0  0  0  0  0
   98.4588    5.4799  -92.1608 O   0  0  0  0  0  0  0  0  0  0  0  0
   99.7276    5.7997  -91.9464 C   0  0  0  0  0  0  0  0  0  0  0  0
   98.9823   10.4682  -91.2435 C   0  0  0  0  0  0  0  0  0  0  0  0
  101.1893    4.1466  -93.8690 C   0  0  0  0  0  0  0  0  0  0  0  0
   99.8810    2.7135  -92.6174 O   0  0  0  0  0  0  0  0  0  0  0  0
  100.8523    5.0631  -92.6486 C   0  0  0  0  0  0  0  0  0  0  0  0
  102.4286    6.6202  -91.3156 C   0  0  0  0  0  0  0  0  0  0  0  0
  104.5879    4.7548  -91.5969 C   0  0  0  0  0  0  0  0  0  0  0  0
  101.3318    7.5765  -91.1805 C   0  0  0  0  0  0  0  0  0  0  0  0
  105.8216    6.8448  -92.1267 N   0  0  0  0  0  0  0  0  0  0  0  0
  105.0188    6.1284  -91.1282 C   0  0  0  0  0  0  0  0  0  0  0  0
   99.7217    9.3292  -90.7525 C   0  0  0  0  0  0  0  0  0  0  0  0
  105.2121    3.7721  -90.8449 O   0  0  0  0  0  0  0  0  0  0  0  0
  101.1819    9.0485  -91.0524 C   0  0  0  0  0  0  0  0  0  0  0  0
  102.1368    5.3265  -91.9280 N   0  0  0  0  0  0  0  0  0  0  0  0
   98.9012   11.7611  -91.6653 C   0  0  0  0  0  0  0  0  0  0  0  0
  106.4631    3.2540  -92.7702 O   0  0  0  0  0  0  0  0  0  0  0  0
   98.9939    8.0647  -91.0988 C   0  0  0  0  0  0  0  0  0  0  0  0
  100.0219    7.0170  -91.2521 N   0  0  0  0  0  0  0  0  0  0  0  0
  106.2019    3.0443  -91.4813 C   0  0  0  0  0  0  0  0  0  0  0  0
  1  4  2  0
  1 12  1  0
  1 19  1  0
  2  3  1  0
  2  8  1  0
  2  9  1  0
  5  6  2  0
  6 10  1  0
  6 23  1  0
  7 16  1  0
  7 20  2  0
  8 10  1  0
 10 19  1  0
 11 13  1  0
 11 19  1  0
 12 15  1  0
 12 17  1  0
 13 18  1  0
 13 23  1  0
 14 15  1  0
 16 18  1  0
 16 22  1  0
 17 24  1  0
 21 24  1  0
 22 23  1  0
M  END
$$$$
