
     RDKit          3D

 22 23  0  0  0  0  0  0  0  0999 V2000
   98.6228    5.6368  -89.0870 C   0  0  0  0  0  0  0  0  0  0  0  0
   99.6471    3.5995  -88.9591 O   0  0  0  0  0  0  0  0  0  0  0  0
  105.6882    2.8661  -93.0010 O   0  0  0  0  0  0  0  0  0  0  0  0
   99.2615    4.4475  -89.7461 C   0  0  0  0  0  0  0  0  0  0  0  0
  100.7313    4.1764  -92.3135 C   0  0  0  0  0  0  0  0  0  0  0  0
  102.9826    4.1494  -92.1043 C   0  0  0  0  0  0  0  0  0  0  0  0
  104.3037    4.1306  -91.3556 C   0  0  0  0  0  0  0  0  0  0  0  0
   99.2802    4.1766  -91.4080 C   0  0  0  0  0  0  0  0  0  0  0  0
  102.5906    3.5209  -93.1928 N   0  0  0  0  0  0  0  0  0  0  0  0
  100.9714    7.1207  -91.0089 C   0  0  0  0  0  0  0  0  0  0  0  0
  100.0137   11.1290  -91.1361 O   0  0  0  0  0  0  0  0  0  0  0  0
  101.9648    8.1355  -91.1808 C   0  0  0  0  0  0  0  0  0  0  0  0
  101.2532    3.5342  -93.3525 N   0  0  0  0  0  0  0  0  0  0  0  0
   99.2634    8.8767  -91.1353 C   0  0  0  0  0  0  0  0  0  0  0  0
  101.6436    9.5105  -91.2445 C   0  0  0  0  0  0  0  0  0  0  0  0
  103.2610    7.7814  -91.2978 O   0  0  0  0  0  0  0  0  0  0  0  0
  101.5061    5.8169  -90.6582 C   0  0  0  0  0  0  0  0  0  0  0  0
   99.6557    7.5197  -91.1050 C   0  0  0  0  0  0  0  0  0  0  0  0
  101.7835    4.7984  -91.6734 N   0  0  0  0  0  0  0  0  0  0  0  0
  106.0122    2.5332  -90.8810 O   0  0  0  0  0  0  0  0  0  0  0  0
  105.3985    3.1282  -91.7910 C   0  0  0  0  0  0  0  0  0  0  0  0
  100.2953    9.8478  -91.1694 C   0  0  0  0  0  0  0  0  0  0  0  0
  1  4  1  0
  2  4  2  0
  3 21  2  0
  4  8  1  0
  5  8  1  0
  5 13  2  0
  5 19  1  0
  6  7  2  3
  6  9  1  0
  6 19  1  0
  7 21  1  0
  9 13  1  0
 10 12  2  0
 10 17  1  0
 10 18  1  0
 11 22  1  0
 12 15  1  0
 12 16  1  0
 14 18  2  0
 14 22  1  0
 15 22  2  0
 17 19  1  0
 20 21  1  0
M  END
$$$$
