
     RDKit          3D

 27 26  0  0  0  0  0  0  0  0999 V2000
  -17.4091   -6.7729   12.3397 C   0  0  0  0  0  0  0  0  0  0  0  0
  -21.5725  -10.0317   11.2402 C   0  0  0  0  0  0  0  0  0  0  0  0
  -16.9604   -6.7187   14.8437 C   0  0  0  0  0  0  0  0  0  0  0  0
  -22.0745   -9.4351   12.5617 C   0  0  0  0  0  0  0  0  0  0  0  0
  -22.1455  -12.9863    7.0145 C   0  0  0  0  0  0  0  0  0  0  0  0
  -23.4403   -9.4498   12.7103 O   0  0  0  0  0  0  0  0  0  0  0  0
  -20.5121  -12.1481   10.2524 N   0  0  0  0  0  0  0  0  0  0  0  0
  -21.4495  -11.9160    7.9306 C   0  0  0  0  0  0  0  0  0  0  0  0
  -16.7618   -6.5258   17.1778 O   0  0  0  0  0  0  0  0  0  0  0  0
  -16.5002   -7.2013   16.1436 C   0  0  0  0  0  0  0  0  0  0  0  0
  -20.8289   -8.9830   10.5054 O   0  0  0  0  0  0  0  0  0  0  0  0
  -21.8334  -12.8531    5.5249 C   0  0  0  0  0  0  0  0  0  0  0  0
  -16.8593   -7.5423   13.5692 C   0  0  0  0  0  0  0  0  0  0  0  0
  -15.9229   -8.3680   16.1593 O   0  0  0  0  0  0  0  0  0  0  0  0
  -17.4749   -8.9435   13.6934 C   0  0  0  0  0  0  0  0  0  0  0  0
  -19.0313   -8.7745   13.7182 C   0  0  0  0  0  0  0  0  0  0  0  0
  -21.1358   -9.8842   13.6652 C   0  0  0  0  0  0  0  0  0  0  0  0
  -17.8003  -13.0471    8.8738 C   0  0  0  0  0  0  0  0  0  0  0  0
  -21.1565  -11.4825   11.3742 C   0  0  0  0  0  0  0  0  0  0  0  0
  -19.7227   -9.9065   13.1360 N   0  0  0  0  0  0  0  0  0  0  0  0
  -17.6062  -12.6350   10.0935 O   0  0  0  0  0  0  0  0  0  0  0  0
  -19.1783  -13.2220    8.3447 C   0  0  0  0  0  0  0  0  0  0  0  0
  -19.2262  -13.7168    7.0564 O   0  0  0  0  0  0  0  0  0  0  0  0
  -16.8073  -13.5353    8.1836 O   0  0  0  0  0  0  0  0  0  0  0  0
  -21.7484  -12.2429   12.2668 O   0  0  0  0  0  0  0  0  0  0  0  0
  -20.3409  -12.4066    8.8475 C   0  0  0  0  0  0  0  0  0  0  0  0
  -17.6581   -5.2864   12.7711 C   0  0  0  0  0  0  0  0  0  0  0  0
  1 13  1  0
  1 27  1  0
  2  4  1  0
  2 11  1  0
  2 19  1  0
  3 10  1  0
  3 13  1  0
  4  6  1  0
  4 17  1  0
  5  8  1  0
  5 12  1  0
  7 19  1  0
  7 26  2  3
  8 26  1  0
  9 10  2  0
 10 14  1  0
 13 15  1  0
 15 16  1  0
 16 20  1  0
 17 20  1  0
 18 21  2  0
 18 22  1  0
 18 24  1  0
 19 25  2  0
 22 23  1  0
 22 26  1  0
M  END
$$$$
