
     RDKit          3D

 31 32  0  0  0  0  0  0  0  0999 V2000
  -20.1122  -12.6137    9.3465 C   0  0  0  0  0  0  0  0  0  0  0  0
  -20.2953   -7.6225   12.9738 O   0  0  0  0  0  0  0  0  0  0  0  0
  -17.3963   -6.9917   13.0765 C   0  0  0  0  0  0  0  0  0  0  0  0
  -17.7575   -9.4584   13.2799 C   0  0  0  0  0  0  0  0  0  0  0  0
  -20.4276  -11.5328   11.5867 C   0  0  0  0  0  0  0  0  0  0  0  0
  -19.1263   -9.8118   12.8507 C   0  0  0  0  0  0  0  0  0  0  0  0
  -22.6690   -9.1011   13.1426 O   0  0  0  0  0  0  0  0  0  0  0  0
  -22.4663  -11.8553   12.7392 O   0  0  0  0  0  0  0  0  0  0  0  0
  -21.5711   -9.5908   12.4288 C   0  0  0  0  0  0  0  0  0  0  0  0
  -20.5295  -12.6543   10.7046 C   0  0  0  0  0  0  0  0  0  0  0  0
  -21.3870  -11.0980   12.5756 C   0  0  0  0  0  0  0  0  0  0  0  0
  -16.7363   -6.0167   16.2255 O   0  0  0  0  0  0  0  0  0  0  0  0
  -17.6017   -8.2354   15.3224 O   0  0  0  0  0  0  0  0  0  0  0  0
  -19.1490  -10.8322   11.7687 C   0  0  0  0  0  0  0  0  0  0  0  0
  -17.3820  -13.9626    7.4886 O   0  0  0  0  0  0  0  0  0  0  0  0
  -16.4801   -7.4842   16.1981 P   0  0  0  0  0  0  0  0  0  0  0  0
  -21.5186  -13.0532    5.9279 C   0  0  0  0  0  0  0  0  0  0  0  0
  -21.7437   -9.2964   11.0288 O   0  0  0  0  0  0  0  0  0  0  0  0
  -20.8156  -12.6560    8.1889 C   0  0  0  0  0  0  0  0  0  0  0  0
  -20.1569  -13.4924    5.8355 C   0  0  0  0  0  0  0  0  0  0  0  0
  -18.6609  -12.9265    9.1513 C   0  0  0  0  0  0  0  0  0  0  0  0
  -16.4987  -12.7618   10.2401 O   0  0  0  0  0  0  0  0  0  0  0  0
  -17.7899  -12.4251   10.1696 C   0  0  0  0  0  0  0  0  0  0  0  0
  -17.7660   -8.1533   13.9689 C   0  0  0  0  0  0  0  0  0  0  0  0
  -15.1090   -7.7635   15.5081 O   0  0  0  0  0  0  0  0  0  0  0  0
  -20.7268  -13.8023   11.2643 O   0  0  0  0  0  0  0  0  0  0  0  0
  -19.4733  -13.3890    6.8941 C   0  0  0  0  0  0  0  0  0  0  0  0
  -16.5385   -8.0789   17.6092 O   0  0  0  0  0  0  0  0  0  0  0  0
  -21.8111  -12.5828    7.3140 C   0  0  0  0  0  0  0  0  0  0  0  0
  -20.3032   -8.9616   12.9669 C   0  0  0  0  0  0  0  0  0  0  0  0
  -18.4478  -13.4176    7.7637 C   0  0  0  0  0  0  0  0  0  0  0  0
  1 10  1  0
  1 19  2  0
  1 21  1  0
  2 30  1  0
  3 24  1  0
  4  6  1  0
  4 24  1  0
  5 10  1  0
  5 11  1  0
  5 14  2  0
  6 14  1  0
  6 30  1  0
  7  9  1  0
  8 11  1  0
  9 11  1  0
  9 18  1  0
  9 30  1  0
 10 26  1  0
 12 16  1  0
 13 16  1  0
 13 24  1  0
 15 31  1  0
 16 25  1  0
 16 28  1  0
 17 20  1  0
 17 29  1  0
 19 29  2  0
 20 27  2  0
 21 23  1  0
 21 31  1  0
 22 23  1  0
 27 31  2  0
M  END
$$$$
