
     RDKit          3D

 38 37  0  0  0  0  0  0  0  0999 V2000
  -22.3541  -11.4822    5.8103 F   0  0  0  0  0  0  0  0  0  0  0  0
  -19.0101  -13.6009    6.8753 O   0  0  0  0  0  0  0  0  0  0  0  0
  -15.9349   -6.6153   16.1007 C   0  0  0  0  0  0  0  0  0  0  0  0
  -17.3867   -8.6011   15.2166 N   0  0  0  0  0  0  0  0  0  0  0  0
  -19.8691  -13.0518    7.8036 C   0  0  0  0  0  0  0  0  0  0  0  0
  -18.5056   -9.4103   15.1817 C   0  0  0  0  0  0  0  0  0  0  0  0
  -19.3478   -9.3037   14.0082 C   0  0  0  0  0  0  0  0  0  0  0  0
  -17.6838  -13.7029    7.0118 C   0  0  0  0  0  0  0  0  0  0  0  0
  -16.2637   -4.2120    9.3672 C   0  0  0  0  0  0  0  0  0  0  0  0
  -16.5878   -6.6309   17.1834 O   0  0  0  0  0  0  0  0  0  0  0  0
  -20.2791   -9.0824   11.9459 C   0  0  0  0  0  0  0  0  0  0  0  0
  -23.5435   -9.4872   12.6060 N   0  0  0  0  0  0  0  0  0  0  0  0
  -20.8077  -11.3442    9.8600 N   0  0  0  0  0  0  0  0  0  0  0  0
  -16.2821   -5.6838   15.0267 C   0  0  0  0  0  0  0  0  0  0  0  0
  -22.5964  -11.5284   12.4984 O   0  0  0  0  0  0  0  0  0  0  0  0
  -20.3883  -12.5626   10.0197 C   0  0  0  0  0  0  0  0  0  0  0  0
  -20.6388   -9.8304   14.0202 O   0  0  0  0  0  0  0  0  0  0  0  0
  -21.1887   -9.7469   12.7621 C   0  0  0  0  0  0  0  0  0  0  0  0
  -18.7929  -10.2292   16.1334 O   0  0  0  0  0  0  0  0  0  0  0  0
  -16.1925   -5.6549    9.8701 C   0  0  0  0  0  0  0  0  0  0  0  0
  -15.2473   -4.9737   12.4310 O   0  0  0  0  0  0  0  0  0  0  0  0
  -19.1085   -8.8382   12.7177 C   0  0  0  0  0  0  0  0  0  0  0  0
  -15.5346  -13.3434    8.0651 C   0  0  0  0  0  0  0  0  0  0  0  0
  -22.0069  -12.6646    6.2712 C   0  0  0  0  0  0  0  0  0  0  0  0
  -16.6778   -6.4536   13.7002 C   0  0  0  0  0  0  0  0  0  0  0  0
  -15.0148  -13.1016    6.9014 O   0  0  0  0  0  0  0  0  0  0  0  0
  -17.1354   -7.7917   14.1142 C   0  0  0  0  0  0  0  0  0  0  0  0
  -20.8213  -14.6331   11.2386 O   0  0  0  0  0  0  0  0  0  0  0  0
  -20.8083  -13.2542   11.0941 N   0  0  0  0  0  0  0  0  0  0  0  0
  -14.8800   -7.3218   15.8821 O   0  0  0  0  0  0  0  0  0  0  0  0
  -17.6444   -4.3929   12.7640 O   0  0  0  0  0  0  0  0  0  0  0  0
  -16.5993   -5.3820   12.4999 C   0  0  0  0  0  0  0  0  0  0  0  0
  -16.9842  -13.2888    8.1663 N   0  0  0  0  0  0  0  0  0  0  0  0
  -21.2402  -12.7163    7.4557 C   0  0  0  0  0  0  0  0  0  0  0  0
  -22.4737  -10.3504   12.4752 C   0  0  0  0  0  0  0  0  0  0  0  0
  -16.9468   -6.1439   11.1041 C   0  0  0  0  0  0  0  0  0  0  0  0
  -19.5209  -13.0512    9.1239 O   0  0  0  0  0  0  0  0  0  0  0  0
  -22.7026  -13.6904    5.7821 F   0  0  0  0  0  0  0  0  0  0  0  0
  1 24  1  0
  2  5  1  0
  2  8  1  0
  3 10  2  0
  3 14  1  0
  3 30  1  0
  4  6  1  0
  4 27  1  0
  5 34  2  3
  5 37  1  0
  6  7  1  0
  6 19  2  0
  7 17  1  0
  7 22  1  0
  8 33  2  3
  9 20  1  0
 11 18  1  0
 11 22  1  0
 12 35  1  0
 13 16  2  0
 14 25  1  0
 15 35  2  0
 16 29  1  0
 16 37  1  0
 17 18  1  0
 18 35  1  0
 20 36  1  0
 21 32  1  0
 23 26  1  0
 23 33  1  0
 24 34  1  0
 24 38  1  0
 25 27  2  3
 25 32  1  0
 28 29  1  0
 31 32  1  0
 32 36  1  0
M  END
$$$$
