
     RDKit          3D

 20 22  0  0  0  0  0  0  0  0999 V2000
  -10.5328   -7.1346    4.4721 O   0  0  0  0  0  0  0  0  0  0  0  0
  -22.2139   -8.6828    6.0023 C   0  0  0  0  0  0  0  0  0  0  0  0
  -17.8974   -5.8780    6.1324 C   0  0  0  0  0  0  0  0  0  0  0  0
  -18.2815   -6.1372    3.6481 C   0  0  0  0  0  0  0  0  0  0  0  0
  -21.8085   -8.8228    4.5391 C   0  0  0  0  0  0  0  0  0  0  0  0
  -14.8620   -5.9424    4.2997 O   0  0  0  0  0  0  0  0  0  0  0  0
  -11.6960   -7.6277    3.7342 C   0  0  0  0  0  0  0  0  0  0  0  0
  -13.6966   -6.5872    4.8584 C   0  0  0  0  0  0  0  0  0  0  0  0
  -21.1531   -7.6535    3.8169 C   0  0  0  0  0  0  0  0  0  0  0  0
  -16.0776   -6.0420    4.4854 C   0  0  0  0  0  0  0  0  0  0  0  0
  -16.6083   -5.8407    5.8230 C   0  0  0  0  0  0  0  0  0  0  0  0
  -18.7999   -5.9146    4.9112 C   0  0  0  0  0  0  0  0  0  0  0  0
  -20.2282   -5.6044    5.1231 C   0  0  0  0  0  0  0  0  0  0  0  0
  -21.2067   -6.4495    4.5984 N   0  0  0  0  0  0  0  0  0  0  0  0
  -12.5048   -6.7360    5.8537 O   0  0  0  0  0  0  0  0  0  0  0  0
  -16.9306   -6.2896    3.4935 C   0  0  0  0  0  0  0  0  0  0  0  0
  -22.3156   -6.4108    5.6286 C   0  0  0  0  0  0  0  0  0  0  0  0
  -12.3818   -6.7887    4.7946 C   0  0  0  0  0  0  0  0  0  0  0  0
  -21.7324   -7.4564    6.6582 C   0  0  0  0  0  0  0  0  0  0  0  0
  -11.7727   -6.4425    5.1274 N   0  0  0  0  0  0  0  0  0  0  0  0
  1  7  1  0
  1 20  1  0
  2  5  1  0
  2 19  1  0
  3 11  1  0
  3 12  1  0
  4 12  2  0
  4 16  1  0
  5  9  1  0
  6  8  1  0
  6 10  1  0
  7 18  1  0
  8 18  1  0
  9 14  1  0
 10 11  1  0
 10 16  2  0
 12 13  1  0
 13 14  1  0
 14 17  1  0
 15 18  1  0
 17 19  1  0
 18 20  1  0
M  END
$$$$
