
     RDKit          3D

 19 20  0  0  0  0  0  0  0  0999 V2000
  -21.8371   -8.0854    6.0568 C   0  0  0  0  0  0  0  0  0  0  0  0
  -18.5893   -6.9428    4.7598 C   0  0  0  0  0  0  0  0  0  0  0  0
  -11.4286   -6.6573    4.9938 N   0  0  0  0  0  0  0  0  0  0  0  0
  -14.7241   -5.7757    4.9561 C   0  0  0  0  0  0  0  0  0  0  0  0
  -13.4821   -6.5495    5.1211 C   0  0  0  0  0  0  0  0  0  0  0  0
  -21.4315   -9.1538    3.9570 C   0  0  0  0  0  0  0  0  0  0  0  0
  -20.2840   -8.4265    3.8101 C   0  0  0  0  0  0  0  0  0  0  0  0
  -11.5801   -7.3645    3.7502 C   0  0  0  0  0  0  0  0  0  0  0  0
  -12.4743   -6.8143    4.5643 N   0  0  0  0  0  0  0  0  0  0  0  0
  -16.0857   -6.0171    4.7874 C   0  0  0  0  0  0  0  0  0  0  0  0
  -10.5088   -7.0895    4.4841 N   0  0  0  0  0  0  0  0  0  0  0  0
  -19.8682   -7.5886    4.8219 C   0  0  0  0  0  0  0  0  0  0  0  0
  -16.8939   -6.0899    5.8443 C   0  0  0  0  0  0  0  0  0  0  0  0
  -17.9494   -6.6288    3.5415 C   0  0  0  0  0  0  0  0  0  0  0  0
  -12.4120   -6.8171    5.7297 N   0  0  0  0  0  0  0  0  0  0  0  0
  -20.7396   -7.3502    5.8465 C   0  0  0  0  0  0  0  0  0  0  0  0
  -18.0717   -6.3727    5.9647 C   0  0  0  0  0  0  0  0  0  0  0  0
  -16.7097   -6.1852    3.7123 C   0  0  0  0  0  0  0  0  0  0  0  0
  -22.2402   -8.9711    5.0583 C   0  0  0  0  0  0  0  0  0  0  0  0
  1 16  1  0
  1 19  2  0
  2 12  1  0
  2 14  1  0
  2 17  1  0
  3  9  1  0
  3 11  1  0
  4  5  1  0
  4 10  1  0
  5  9  1  0
  6  7  2  0
  6 19  1  0
  7 12  1  0
  8 11  1  0
  9 15  1  0
 10 13  2  0
 10 18  1  0
 12 16  2  0
 13 17  1  0
 14 18  1  0
M  END
$$$$
