
     RDKit          3D

 12 11  0  0  0  0  0  0  0  0999 V2000
  -19.0939   -4.7911    4.0789 C   0  0  0  0  0  0  0  0  0  0  0  0
  -15.8852   -6.0870    4.1376 C   0  0  0  0  0  0  0  0  0  0  0  0
  -18.0346   -5.8985    3.7831 O   0  0  0  0  0  0  0  0  0  0  0  0
  -16.8787   -5.5535    6.3417 O   0  0  0  0  0  0  0  0  0  0  0  0
  -14.7288   -5.8511    5.0541 C   0  0  0  0  0  0  0  0  0  0  0  0
  -20.2550   -5.5120    3.5099 C   0  0  0  0  0  0  0  0  0  0  0  0
  -12.3143   -6.9305    5.8152 O   0  0  0  0  0  0  0  0  0  0  0  0
  -13.6189   -6.5339    4.7857 C   0  0  0  0  0  0  0  0  0  0  0  0
  -17.1153   -5.9239    4.8953 C   0  0  0  0  0  0  0  0  0  0  0  0
  -11.7419   -7.1002    3.7000 O   0  0  0  0  0  0  0  0  0  0  0  0
  -19.9390   -5.7973    4.9678 C   0  0  0  0  0  0  0  0  0  0  0  0
  -12.2337   -6.8085    4.9536 N   0  0  0  0  0  0  0  0  0  0  0  0
  1  3  1  0
  1  6  1  0
  2  5  1  0
  2  9  1  0
  3  9  1  0
  4  9  2  0
  5  8  2  3
  6 11  1  0
  7 12  1  0
  8 12  1  0
 10 12  1  0
M  END
$$$$
