
     RDKit          3D

 10  9  0  0  0  0  0  0  0  0999 V2000
  -18.2437   -4.9820    4.1757 O   0  0  0  0  0  0  0  0  0  0  0  0
  -12.2554   -6.9524    5.9501 O   0  0  0  0  0  0  0  0  0  0  0  0
  -12.1524   -7.0039    3.6095 O   0  0  0  0  0  0  0  0  0  0  0  0
  -18.5042   -7.4301    4.2299 C   0  0  0  0  0  0  0  0  0  0  0  0
  -13.9772   -6.5314    4.8467 C   0  0  0  0  0  0  0  0  0  0  0  0
  -16.2696   -6.2793    5.3291 C   0  0  0  0  0  0  0  0  0  0  0  0
  -17.9048   -6.2613    3.6893 C   0  0  0  0  0  0  0  0  0  0  0  0
  -16.4235   -6.3272    3.8260 O   0  0  0  0  0  0  0  0  0  0  0  0
  -14.9105   -7.0773    5.3202 C   0  0  0  0  0  0  0  0  0  0  0  0
  -12.4260   -6.8279    4.8628 C   0  0  0  0  0  0  0  0  0  0  0  0
  1  7  1  0
  2 10  2  0
  3 10  1  0
  4  7  1  0
  5  9  2  3
  5 10  1  0
  6  8  1  0
  6  9  1  0
  7  8  1  0
M  END
$$$$
