
     RDKit          3D

 14 14  0  0  0  0  0  0  0  0999 V2000
  -12.9536   -6.4252    5.2632 C   0  0  0  0  0  0  0  0  0  0  0  0
  -12.2584   -6.2678    5.3510 N   0  0  0  0  0  0  0  0  0  0  0  0
  -17.9750   -6.5856    3.3148 C   0  0  0  0  0  0  0  0  0  0  0  0
  -12.0578   -6.8438    4.3596 N   0  0  0  0  0  0  0  0  0  0  0  0
  -16.3188   -5.3422    4.5409 C   0  0  0  0  0  0  0  0  0  0  0  0
  -19.5418   -6.9538    5.4842 C   0  0  0  0  0  0  0  0  0  0  0  0
  -19.0550   -7.4429    3.2391 C   0  0  0  0  0  0  0  0  0  0  0  0
  -17.5878   -6.0844    4.4945 C   0  0  0  0  0  0  0  0  0  0  0  0
  -11.6698   -7.6329    3.7032 C   0  0  0  0  0  0  0  0  0  0  0  0
  -18.3244   -6.3542    5.7187 C   0  0  0  0  0  0  0  0  0  0  0  0
  -15.1111   -5.7613    4.2519 C   0  0  0  0  0  0  0  0  0  0  0  0
  -13.9596   -5.8835    5.4967 N   0  0  0  0  0  0  0  0  0  0  0  0
  -10.3230   -7.1656    4.2534 O   0  0  0  0  0  0  0  0  0  0  0  0
  -19.7851   -7.6971    4.4158 C   0  0  0  0  0  0  0  0  0  0  0  0
  1  2  1  0
  1 12  1  0
  2  4  1  0
  3  7  1  0
  3  8  2  0
  4  9  1  0
  5  8  1  0
  5 11  1  0
  6 10  1  0
  6 14  1  0
  7 14  2  0
  8 10  1  0
  9 13  1  0
 11 12  2  3
M  END
$$$$
