
     RDKit          3D

 13 13  0  0  0  0  0  0  0  0999 V2000
  -11.6464   -7.4395    3.6669 C   0  0  0  0  0  0  0  0  0  0  0  0
  -19.3027   -6.0390    4.6259 C   0  0  0  0  0  0  0  0  0  0  0  0
  -12.1861   -7.0241    4.2560 N   0  0  0  0  0  0  0  0  0  0  0  0
  -17.2981   -6.8798    4.5009 C   0  0  0  0  0  0  0  0  0  0  0  0
  -17.3817   -4.9623    4.4238 N   0  0  0  0  0  0  0  0  0  0  0  0
  -14.3803   -6.5281    5.0273 C   0  0  0  0  0  0  0  0  0  0  0  0
  -10.2037   -7.1588    4.2003 N   0  0  0  0  0  0  0  0  0  0  0  0
  -18.6144   -7.1873    4.7069 C   0  0  0  0  0  0  0  0  0  0  0  0
  -15.1797   -5.8128    4.0956 N   0  0  0  0  0  0  0  0  0  0  0  0
  -12.2201   -7.0535    5.8208 O   0  0  0  0  0  0  0  0  0  0  0  0
  -12.9956   -6.5765    5.2706 C   0  0  0  0  0  0  0  0  0  0  0  0
  -18.6147   -4.7463    4.3856 C   0  0  0  0  0  0  0  0  0  0  0  0
  -16.5953   -5.9521    4.2111 C   0  0  0  0  0  0  0  0  0  0  0  0
  1  3  1  0
  1  7  1  0
  2  8  1  0
  2 12  1  0
  3 11  1  0
  4  8  1  0
  4 13  1  0
  5 12  1  0
  5 13  2  0
  6  9  2  3
  6 11  1  0
  9 13  1  0
 10 11  1  0
M  END
$$$$
