
     RDKit          3D

 27 28  0  0  0  0  0  0  0  0999 V2000
   19.8000   23.2875   22.6590 O   0  0  0  0  0  0  0  0  0  0  0  0
   24.8536   21.5469   21.1496 C   0  0  0  0  0  0  0  0  0  0  0  0
   22.1385   18.3732   21.0504 C   0  0  0  0  0  0  0  0  0  0  0  0
   25.8933   23.6655   21.4098 C   0  0  0  0  0  0  0  0  0  0  0  0
   20.5874   24.9201   20.9367 C   0  0  0  0  0  0  0  0  0  0  0  0
   21.8628   20.4860   20.0512 N   0  0  0  0  0  0  0  0  0  0  0  0
   21.9087   24.4084   20.6098 C   0  0  0  0  0  0  0  0  0  0  0  0
   22.4665   22.6227   16.4591 C   0  0  0  0  0  0  0  0  0  0  0  0
   24.2752   22.9302   23.0904 F   0  0  0  0  0  0  0  0  0  0  0  0
   18.3996   24.1686   21.1589 O   0  0  0  0  0  0  0  0  0  0  0  0
   22.9492   24.7631   21.3708 O   0  0  0  0  0  0  0  0  0  0  0  0
   22.1348   23.9662   19.2300 C   0  0  0  0  0  0  0  0  0  0  0  0
   21.2915   21.7531   19.9371 C   0  0  0  0  0  0  0  0  0  0  0  0
   26.4071   22.3012   19.4582 C   0  0  0  0  0  0  0  0  0  0  0  0
   22.9720   24.9333   17.0824 C   0  0  0  0  0  0  0  0  0  0  0  0
   25.0038   22.7138   21.8898 C   0  0  0  0  0  0  0  0  0  0  0  0
   20.8390   18.2317   20.4285 O   0  0  0  0  0  0  0  0  0  0  0  0
   22.5461   19.8356   21.0380 C   0  0  0  0  0  0  0  0  0  0  0  0
   19.9680   22.3934   20.4549 C   0  0  0  0  0  0  0  0  0  0  0  0
   22.6369   24.9470   18.4197 C   0  0  0  0  0  0  0  0  0  0  0  0
   19.6089   23.7176   21.3756 C   0  0  0  0  0  0  0  0  0  0  0  0
   26.5509   23.4861   20.1964 C   0  0  0  0  0  0  0  0  0  0  0  0
   21.8933   22.5863   18.8719 C   0  0  0  0  0  0  0  0  0  0  0  0
   22.0819   22.0330   17.6293 C   0  0  0  0  0  0  0  0  0  0  0  0
   22.8306   23.8934   16.2456 C   0  0  0  0  0  0  0  0  0  0  0  0
   25.5096   21.3300   19.9520 C   0  0  0  0  0  0  0  0  0  0  0  0
   22.4811   20.3976   22.3345 O   0  0  0  0  0  0  0  0  0  0  0  0
  1 21  1  0
  2 16  1  0
  2 26  2  0
  3 17  1  0
  3 18  1  0
  4 16  1  0
  4 22  2  0
  5  7  1  0
  5 21  1  0
  6 13  1  0
  6 18  1  0
  7 11  1  0
  7 12  1  0
  8 24  2  0
  8 25  1  0
  9 16  1  0
 10 21  1  0
 12 20  2  0
 12 23  1  0
 13 19  1  0
 13 23  1  0
 14 22  1  0
 14 26  1  0
 15 20  1  0
 15 25  2  0
 18 27  1  0
 19 21  1  0
 23 24  1  0
M  END
$$$$
