
     RDKit          3D

 21 22  0  0  0  0  0  0  0  0999 V2000
   23.6653   23.5007   17.9925 C   0  0  0  0  0  0  0  0  0  0  0  0
   24.6693   22.9960   16.8819 C   0  0  0  0  0  0  0  0  0  0  0  0
   21.4128   19.6098   20.7535 C   0  0  0  0  0  0  0  0  0  0  0  0
   21.1648   20.4308   19.5841 C   0  0  0  0  0  0  0  0  0  0  0  0
   21.3630   18.3350   20.4366 O   0  0  0  0  0  0  0  0  0  0  0  0
   21.9481   23.5929   20.2276 C   0  0  0  0  0  0  0  0  0  0  0  0
   22.4746   22.5181   17.7390 C   0  0  0  0  0  0  0  0  0  0  0  0
   22.4472   20.6403   20.5525 C   0  0  0  0  0  0  0  0  0  0  0  0
   24.4305   23.4459   19.2917 C   0  0  0  0  0  0  0  0  0  0  0  0
   24.0859   22.3853   20.3047 C   0  0  0  0  0  0  0  0  0  0  0  0
   25.2404   24.4631   19.5812 O   0  0  0  0  0  0  0  0  0  0  0  0
   20.2099   21.5795   20.0302 C   0  0  0  0  0  0  0  0  0  0  0  0
   20.9974   22.5310   21.0331 C   0  0  0  0  0  0  0  0  0  0  0  0
   20.1151   23.9380   22.6947 O   0  0  0  0  0  0  0  0  0  0  0  0
   23.2465   24.8834   17.4881 C   0  0  0  0  0  0  0  0  0  0  0  0
   24.4979   21.6016   21.5327 C   0  0  0  0  0  0  0  0  0  0  0  0
   22.5075   22.2246   20.4292 C   0  0  0  0  0  0  0  0  0  0  0  0
   18.8907   23.7092   20.8533 O   0  0  0  0  0  0  0  0  0  0  0  0
   23.5269   20.3873   21.6678 C   0  0  0  0  0  0  0  0  0  0  0  0
   19.9294   23.5526   21.5239 C   0  0  0  0  0  0  0  0  0  0  0  0
   22.6039   24.6858   20.8614 O   0  0  0  0  0  0  0  0  0  0  0  0
  1  2  1  0
  1  7  1  0
  1  9  1  0
  1 15  1  0
  3  4  1  0
  3  5  1  0
  3  8  1  0
  4 12  1  0
  6 13  1  0
  6 17  1  0
  6 21  1  0
  8 17  1  0
  8 19  1  0
  9 10  1  0
  9 11  1  0
 10 16  1  0
 10 17  1  0
 12 13  1  0
 13 20  1  0
 14 20  2  0
 16 19  1  0
 18 20  1  0
M  END
$$$$
