
     RDKit          3D

 33 35  0  0  0  0  0  0  0  0999 V2000
   37.2394   49.6704   43.2856 C   0  0  0  0  0  0  0  0  0  0  0  0
   34.8752   52.9957   45.3627 O   0  0  0  0  0  0  0  0  0  0  0  0
   32.9003   55.0103   45.0735 C   0  0  0  0  0  0  0  0  0  0  0  0
   35.7678   50.3272   44.7307 O   0  0  0  0  0  0  0  0  0  0  0  0
   39.9013   56.6203   41.2987 C   0  0  0  0  0  0  0  0  0  0  0  0
   32.0331   56.1179   45.1962 C   0  0  0  0  0  0  0  0  0  0  0  0
   37.4386   48.4662   43.7349 C   0  0  0  0  0  0  0  0  0  0  0  0
   33.2306   52.1744   40.4423 C   0  0  0  0  0  0  0  0  0  0  0  0
   38.3844   54.2434   41.8055 C   0  0  0  0  0  0  0  0  0  0  0  0
   35.9182   51.7836   43.0474 N   0  0  0  0  0  0  0  0  0  0  0  0
   39.2856   46.9418   41.0190 C   0  0  0  0  0  0  0  0  0  0  0  0
   38.6660   47.8611   41.8364 C   0  0  0  0  0  0  0  0  0  0  0  0
   36.6154   53.0348   42.9280 N   0  0  0  0  0  0  0  0  0  0  0  0
   37.5187   53.1422   41.8942 C   0  0  0  0  0  0  0  0  0  0  0  0
   39.4268   57.5579   43.5853 C   0  0  0  0  0  0  0  0  0  0  0  0
   37.3713   55.1035   43.8099 C   0  0  0  0  0  0  0  0  0  0  0  0
   38.3108   55.2521   42.7794 C   0  0  0  0  0  0  0  0  0  0  0  0
   38.5807   49.4811   41.4161 S   0  0  0  0  0  0  0  0  0  0  0  0
   38.8435   45.1822   42.6775 C   0  0  0  0  0  0  0  0  0  0  0  0
   36.4035   50.6401   43.7444 C   0  0  0  0  0  0  0  0  0  0  0  0
   31.5514   58.5466   45.2612 C   0  0  0  0  0  0  0  0  0  0  0  0
   35.2285   54.1045   44.7884 C   0  0  0  0  0  0  0  0  0  0  0  0
   34.5969   51.5156   42.4055 C   0  0  0  0  0  0  0  0  0  0  0  0
   36.4177   54.0847   43.8298 C   0  0  0  0  0  0  0  0  0  0  0  0
   34.7316   56.5219   45.1360 C   0  0  0  0  0  0  0  0  0  0  0  0
   33.8726   57.6112   45.2626 C   0  0  0  0  0  0  0  0  0  0  0  0
   34.2909   55.1950   45.0141 C   0  0  0  0  0  0  0  0  0  0  0  0
   38.0814   47.4497   43.0616 C   0  0  0  0  0  0  0  0  0  0  0  0
   39.2365   56.3842   42.6529 C   0  0  0  0  0  0  0  0  0  0  0  0
   34.4248   52.6203   41.2141 C   0  0  0  0  0  0  0  0  0  0  0  0
   38.2293   46.1169   43.4934 C   0  0  0  0  0  0  0  0  0  0  0  0
   32.4981   57.3989   45.2405 C   0  0  0  0  0  0  0  0  0  0  0  0
   39.3675   45.6295   41.3835 C   0  0  0  0  0  0  0  0  0  0  0  0
  1  7  2  3
  1 20  1  0
  2 22  1  0
  3  6  2  0
  3 27  1  0
  4 20  2  0
  5 29  1  0
  6 32  1  0
  7 28  1  0
  8 30  1  0
  9 14  2  0
  9 17  1  0
 10 13  1  0
 10 20  1  0
 10 23  1  0
 11 12  1  0
 11 33  2  0
 12 18  2  0
 12 28  1  0
 13 14  1  0
 13 24  1  0
 15 29  1  0
 16 17  1  0
 16 24  2  0
 17 29  1  0
 19 31  1  0
 19 33  1  0
 21 32  1  0
 22 24  1  0
 22 27  1  0
 23 30  1  0
 25 26  1  0
 25 27  2  0
 26 32  2  0
 28 31  2  0
M  END
$$$$
