
     RDKit          3D

 28 28  0  0  0  0  0  0  0  0999 V2000
   32.4053   33.4499  102.8085 N   0  0  0  0  0  0  0  0  0  0  0  0
   28.3213   36.1796  103.0081 C   0  0  0  0  0  0  0  0  0  0  0  0
   23.5783   32.6070  106.3699 C   0  0  0  0  0  0  0  0  0  0  0  0
   26.2264   35.3775  102.0797 C   0  0  0  0  0  0  0  0  0  0  0  0
   24.6453   33.9939  108.0133 C   0  0  0  0  0  0  0  0  0  0  0  0
   27.3006   35.1844  103.0169 C   0  0  0  0  0  0  0  0  0  0  0  0
   29.2039   34.0379  104.3643 O   0  0  0  0  0  0  0  0  0  0  0  0
   31.5448   33.9176  104.9188 C   0  0  0  0  0  0  0  0  0  0  0  0
   24.5807   33.0190  104.3002 C   0  0  0  0  0  0  0  0  0  0  0  0
   29.4410   35.0426  105.3815 C   0  0  0  0  0  0  0  0  0  0  0  0
   24.7685   36.5261  100.5918 C   0  0  0  0  0  0  0  0  0  0  0  0
   24.7490   33.0441  105.6942 O   0  0  0  0  0  0  0  0  0  0  0  0
   26.9256   34.1433  103.8439 N   0  0  0  0  0  0  0  0  0  0  0  0
   31.3427   34.1382  103.4310 C   0  0  0  0  0  0  0  0  0  0  0  0
   23.3008   33.7957  107.3320 C   0  0  0  0  0  0  0  0  0  0  0  0
   25.5429   33.8918  103.5758 C   0  0  0  0  0  0  0  0  0  0  0  0
   32.8833   33.9475  105.1869 O   0  0  0  0  0  0  0  0  0  0  0  0
   29.9067   33.8290  103.2188 C   0  0  0  0  0  0  0  0  0  0  0  0
   30.8847   35.2183  105.6325 C   0  0  0  0  0  0  0  0  0  0  0  0
   23.7084   35.9117   99.8431 C   0  0  0  0  0  0  0  0  0  0  0  0
   25.1389   34.6550  102.4963 C   0  0  0  0  0  0  0  0  0  0  0  0
   32.7690   33.8471  101.5284 O   0  0  0  0  0  0  0  0  0  0  0  0
   29.6493   32.9565  102.3416 O   0  0  0  0  0  0  0  0  0  0  0  0
   29.2264   36.8653  103.5072 O   0  0  0  0  0  0  0  0  0  0  0  0
   31.6129   36.2737  105.2784 O   0  0  0  0  0  0  0  0  0  0  0  0
   24.4452   37.3768  101.4543 O   0  0  0  0  0  0  0  0  0  0  0  0
   26.0076   33.7914  107.6786 O   0  0  0  0  0  0  0  0  0  0  0  0
   26.2318   36.0096  100.7795 C   0  0  0  0  0  0  0  0  0  0  0  0
  1 14  1  0
  1 22  1  0
  2  6  1  0
  2 24  2  0
  3 12  1  0
  3 15  1  0
  4  6  1  0
  4 21  1  0
  4 28  1  0
  5 15  1  0
  5 27  1  0
  6 13  1  0
  7 10  1  0
  7 18  1  0
  8 14  1  0
  8 17  1  0
  8 19  1  0
  9 12  1  0
  9 16  1  0
 10 19  1  0
 11 20  1  0
 11 26  2  0
 11 28  1  0
 13 16  1  0
 14 18  1  0
 16 21  1  0
 18 23  2  0
 19 25  1  0
M  END
$$$$
