
     RDKit          3D

 25 27  0  0  0  0  0  0  0  0999 V2000
   26.8937   34.8017  107.5426 O   0  0  0  0  0  0  0  0  0  0  0  0
   30.7503   36.6495  103.7092 O   0  0  0  0  0  0  0  0  0  0  0  0
   24.4780   33.5145  106.4729 C   0  0  0  0  0  0  0  0  0  0  0  0
   32.5716   34.3452  105.0478 O   0  0  0  0  0  0  0  0  0  0  0  0
   25.1892   34.1281  104.2647 C   0  0  0  0  0  0  0  0  0  0  0  0
   30.1262   34.6221  104.7438 C   0  0  0  0  0  0  0  0  0  0  0  0
   29.7941   35.7667  103.8016 C   0  0  0  0  0  0  0  0  0  0  0  0
   31.4559   33.3878  103.0594 C   0  0  0  0  0  0  0  0  0  0  0  0
   31.4405   33.9542  104.4054 C   0  0  0  0  0  0  0  0  0  0  0  0
   25.9856   35.0710  103.4083 C   0  0  0  0  0  0  0  0  0  0  0  0
   23.3500   32.5906  104.5289 C   0  0  0  0  0  0  0  0  0  0  0  0
   25.9282   37.2525  101.1996 O   0  0  0  0  0  0  0  0  0  0  0  0
   27.7894   35.1496  105.2580 C   0  0  0  0  0  0  0  0  0  0  0  0
   24.2131   33.2992  103.7249 C   0  0  0  0  0  0  0  0  0  0  0  0
   24.1712   36.2399  100.2468 N   0  0  0  0  0  0  0  0  0  0  0  0
   25.1787   36.2888  101.1585 C   0  0  0  0  0  0  0  0  0  0  0  0
   28.7784   33.9497  105.0871 C   0  0  0  0  0  0  0  0  0  0  0  0
   27.3124   35.5180  103.8372 C   0  0  0  0  0  0  0  0  0  0  0  0
   25.4116   34.1516  105.6573 C   0  0  0  0  0  0  0  0  0  0  0  0
   26.6906   34.8643  106.2006 C   0  0  0  0  0  0  0  0  0  0  0  0
   28.5402   35.9992  103.1128 C   0  0  0  0  0  0  0  0  0  0  0  0
   32.2497   33.8853  102.1138 O   0  0  0  0  0  0  0  0  0  0  0  0
   30.3973   32.6317  102.7083 O   0  0  0  0  0  0  0  0  0  0  0  0
   23.4423   32.7249  105.9207 C   0  0  0  0  0  0  0  0  0  0  0  0
   25.3476   35.1777  102.1064 C   0  0  0  0  0  0  0  0  0  0  0  0
  1 20  1  0
  2  7  1  0
  3 19  2  0
  3 24  1  0
  4  9  1  0
  5 10  1  0
  5 14  1  0
  5 19  1  0
  6  7  1  0
  6  9  1  0
  6 17  1  0
  7 21  1  0
  8  9  1  0
  8 22  2  0
  8 23  1  0
 10 18  1  0
 10 25  1  0
 11 14  2  0
 11 24  1  0
 12 16  2  0
 13 17  1  0
 13 18  1  0
 13 20  1  0
 15 16  1  0
 16 25  1  0
 18 21  1  0
 19 20  1  0
M  END
$$$$
