
     RDKit          3D

 28 31  0  0  0  0  0  0  0  0999 V2000
   30.3085   33.3506  103.3400 C   0  0  0  0  0  0  0  0  0  0  0  0
   24.2464   35.4209  101.9081 N   0  0  0  0  0  0  0  0  0  0  0  0
   27.5035   35.0182  104.2769 C   0  0  0  0  0  0  0  0  0  0  0  0
   28.7463   34.5609  104.9475 C   0  0  0  0  0  0  0  0  0  0  0  0
   24.9339   32.3932  104.8574 O   0  0  0  0  0  0  0  0  0  0  0  0
   31.9371   35.2264  104.9873 C   0  0  0  0  0  0  0  0  0  0  0  0
   27.5957   35.5965  103.0212 C   0  0  0  0  0  0  0  0  0  0  0  0
   24.7997   36.1076  100.8618 C   0  0  0  0  0  0  0  0  0  0  0  0
   25.2005   35.2521  102.8245 C   0  0  0  0  0  0  0  0  0  0  0  0
   22.6004   30.6866  105.7497 O   0  0  0  0  0  0  0  0  0  0  0  0
   30.7875   35.5622  104.2145 C   0  0  0  0  0  0  0  0  0  0  0  0
   25.0968   34.7430  104.0592 N   0  0  0  0  0  0  0  0  0  0  0  0
   29.8849   34.4857  104.1628 N   0  0  0  0  0  0  0  0  0  0  0  0
   26.4379   35.7862  102.2986 C   0  0  0  0  0  0  0  0  0  0  0  0
   26.1398   36.3535  101.0611 N   0  0  0  0  0  0  0  0  0  0  0  0
   22.6639   31.9670  105.7998 C   0  0  0  0  0  0  0  0  0  0  0  0
   32.3579   33.7899  104.6118 C   0  0  0  0  0  0  0  0  0  0  0  0
   24.0654   36.4331   99.7673 N   0  0  0  0  0  0  0  0  0  0  0  0
   21.8943   32.7667  106.4872 O   0  0  0  0  0  0  0  0  0  0  0  0
   30.4758   36.6165  103.6221 O   0  0  0  0  0  0  0  0  0  0  0  0
   23.6331   32.6263  104.8021 C   0  0  0  0  0  0  0  0  0  0  0  0
   24.0185   34.0746  104.9557 C   0  0  0  0  0  0  0  0  0  0  0  0
   26.0089   34.7796  106.3067 C   0  0  0  0  0  0  0  0  0  0  0  0
   28.6800   34.1405  106.1030 O   0  0  0  0  0  0  0  0  0  0  0  0
   32.3303   33.8269  102.1185 O   0  0  0  0  0  0  0  0  0  0  0  0
   24.5345   34.1930  106.4267 C   0  0  0  0  0  0  0  0  0  0  0  0
   26.2457   34.8385  104.8259 C   0  0  0  0  0  0  0  0  0  0  0  0
   31.8249   33.3729  103.3254 C   0  0  0  0  0  0  0  0  0  0  0  0
  1 13  1  0
  1 28  1  0
  2  8  1  0
  2  9  1  0
  3  4  1  0
  3  7  2  0
  3 27  1  0
  4 13  1  0
  4 24  2  0
  5 21  1  0
  6 11  1  0
  6 17  1  0
  7 14  1  0
  8 15  1  0
  8 18  2  0
  9 12  1  0
  9 14  2  0
 10 16  2  0
 11 13  1  0
 11 20  2  0
 12 22  1  0
 12 27  1  0
 14 15  1  0
 16 19  1  0
 16 21  1  0
 17 28  1  0
 21 22  1  0
 22 26  1  0
 23 26  1  0
 23 27  1  0
 25 28  1  0
M  END
$$$$
