
     RDKit          3D

  9  8  0  0  0  0  0  0  0  0999 V2000
   -7.7155    3.7084  -31.7205 O   0  0  0  0  0  0  0  0  0  0  0  0
   -7.3868    2.3391  -32.0441 P   0  0  0  0  0  0  0  0  0  0  0  0
   -8.3661    1.4535  -32.3459 O   0  0  0  0  0  0  0  0  0  0  0  0
   -6.0176    2.0423  -32.0785 O   0  0  0  0  0  0  0  0  0  0  0  0
   -7.3184    4.1898  -30.4049 C   0  0  0  0  0  0  0  0  0  0  0  0
   -8.1919    3.7889  -29.3376 C   0  0  0  0  0  0  0  0  0  0  0  0
   -8.7071    4.9385  -28.4899 C   0  0  0  0  0  0  0  0  0  0  0  0
   -9.8415    4.7112  -27.9086 O   0  0  0  0  0  0  0  0  0  0  0  0
   -8.0870    6.0355  -28.4436 O   0  0  0  0  0  0  0  0  0  0  0  0
  1  2  1  0
  1  5  1  0
  2  3  1  0
  2  4  1  0
  5  6  1  0
  6  7  1  0
  7  8  2  0
  7  9  1  0
M  END
$$$$
