
     RDKit          3D

 24 26  0  0  0  0  0  0  0  0999 V2000
   -6.9967    2.4026  -31.9902 P   0  0  0  0  0  0  0  0  0  0  0  0
   -8.4277    3.2371  -30.3843 C   0  0  0  0  0  0  0  0  0  0  0  0
   -7.9446    7.0124  -27.5058 C   0  0  0  0  0  0  0  0  0  0  0  0
   -9.3193    3.7220  -31.5564 C   0  0  0  0  0  0  0  0  0  0  0  0
   -8.9978    3.7913  -29.1476 C   0  0  0  0  0  0  0  0  0  0  0  0
   -7.2761    3.2444  -33.2384 O   0  0  0  0  0  0  0  0  0  0  0  0
  -10.4439    4.0240  -29.1038 C   0  0  0  0  0  0  0  0  0  0  0  0
  -11.1539    2.9353  -29.9362 C   0  0  0  0  0  0  0  0  0  0  0  0
   -5.5692    1.8928  -32.2045 O   0  0  0  0  0  0  0  0  0  0  0  0
  -10.7534    4.3953  -27.7435 C   0  0  0  0  0  0  0  0  0  0  0  0
  -12.5557    2.4263  -30.3838 C   0  0  0  0  0  0  0  0  0  0  0  0
  -10.6626    3.1893  -31.3351 C   0  0  0  0  0  0  0  0  0  0  0  0
  -14.7955    1.1795  -32.1129 C   0  0  0  0  0  0  0  0  0  0  0  0
   -7.0132    3.3510  -30.6305 O   0  0  0  0  0  0  0  0  0  0  0  0
   -7.8795    1.2117  -31.8760 O   0  0  0  0  0  0  0  0  0  0  0  0
  -11.1444    2.1806  -32.2748 C   0  0  0  0  0  0  0  0  0  0  0  0
   -8.7685    5.9265  -28.0686 C   0  0  0  0  0  0  0  0  0  0  0  0
  -13.5267    1.8387  -32.6829 C   0  0  0  0  0  0  0  0  0  0  0  0
   -9.9322    5.5481  -27.3692 N   0  0  0  0  0  0  0  0  0  0  0  0
   -8.0543    4.7479  -28.5517 C   0  0  0  0  0  0  0  0  0  0  0  0
  -12.3818    1.6293  -31.6522 C   0  0  0  0  0  0  0  0  0  0  0  0
  -14.4130   -0.2491  -31.7010 C   0  0  0  0  0  0  0  0  0  0  0  0
   -8.6578    7.6292  -26.4599 O   0  0  0  0  0  0  0  0  0  0  0  0
   -9.2137    5.1100  -31.7558 O   0  0  0  0  0  0  0  0  0  0  0  0
  1  6  1  0
  1  9  1  0
  1 14  1  0
  1 15  1  0
  2  4  1  0
  2  5  1  0
  2 14  1  0
  3 17  1  0
  3 23  1  0
  4 12  1  0
  4 24  1  0
  5  7  1  0
  5 20  1  0
  7  8  1  0
  7 10  1  0
  8 11  1  0
  8 12  1  0
 10 19  1  0
 11 21  1  0
 12 16  1  0
 13 18  1  0
 13 22  1  0
 16 21  1  0
 17 19  1  0
 17 20  1  0
 18 21  1  0
M  END
$$$$
