
     RDKit          3D

 11 10  0  0  0  0  0  0  0  0999 V2000
   -7.7898    5.7582  -29.3759 O   0  0  0  0  0  0  0  0  0  0  0  0
  -10.9294    4.5512  -30.0561 O   0  0  0  0  0  0  0  0  0  0  0  0
   -7.7224    2.5068  -31.9134 P   0  0  0  0  0  0  0  0  0  0  0  0
   -9.3010    4.0371  -27.8153 C   0  0  0  0  0  0  0  0  0  0  0  0
   -8.7782    3.2616  -30.8565 C   0  0  0  0  0  0  0  0  0  0  0  0
   -8.5483    4.6074  -30.1419 C   0  0  0  0  0  0  0  0  0  0  0  0
   -6.1538    2.4200  -31.6802 O   0  0  0  0  0  0  0  0  0  0  0  0
   -8.1912    6.5814  -27.8134 S   0  0  0  0  0  0  0  0  0  0  0  0
   -9.8762    4.5692  -29.1259 C   0  0  0  0  0  0  0  0  0  0  0  0
   -7.7999    3.3345  -33.2269 O   0  0  0  0  0  0  0  0  0  0  0  0
   -8.2228    1.0658  -32.0622 O   0  0  0  0  0  0  0  0  0  0  0  0
  1  6  1  0
  1  8  1  0
  2  9  1  0
  3  5  1  0
  3  7  1  0
  3 10  1  0
  3 11  1  0
  4  9  1  0
  5  6  1  0
  6  9  1  0
M  END
$$$$
