
     RDKit          3D

 18 18  0  0  0  0  0  0  0  0999 V2000
   -9.6462    3.9299  -28.4788 C   0  0  0  0  0  0  0  0  0  0  0  0
   -9.3700    1.5301  -32.0722 O   0  0  0  0  0  0  0  0  0  0  0  0
  -11.3668    2.6850  -29.5716 O   0  0  0  0  0  0  0  0  0  0  0  0
   -8.1089    7.6218  -28.3583 O   0  0  0  0  0  0  0  0  0  0  0  0
   -7.5204    3.7706  -33.4176 O   0  0  0  0  0  0  0  0  0  0  0  0
   -7.6059    3.1783  -32.1277 C   0  0  0  0  0  0  0  0  0  0  0  0
   -6.9355    1.9106  -32.4530 C   0  0  0  0  0  0  0  0  0  0  0  0
   -8.5193    5.9638  -31.2476 O   0  0  0  0  0  0  0  0  0  0  0  0
   -7.0631    3.5455  -30.9005 O   0  0  0  0  0  0  0  0  0  0  0  0
  -10.1911    3.2449  -29.5873 C   0  0  0  0  0  0  0  0  0  0  0  0
   -8.2877    6.8119  -27.1706 C   0  0  0  0  0  0  0  0  0  0  0  0
   -8.9181    5.0313  -30.3825 C   0  0  0  0  0  0  0  0  0  0  0  0
   -9.6937    3.8467  -30.8404 C   0  0  0  0  0  0  0  0  0  0  0  0
   -8.9691    5.1806  -28.9420 C   0  0  0  0  0  0  0  0  0  0  0  0
   -5.7032    1.6890  -32.1756 O   0  0  0  0  0  0  0  0  0  0  0  0
   -9.1561    2.9201  -31.9470 C   0  0  0  0  0  0  0  0  0  0  0  0
  -10.4172    4.1222  -27.2910 C   0  0  0  0  0  0  0  0  0  0  0  0
   -7.9417    5.4458  -27.7954 C   0  0  0  0  0  0  0  0  0  0  0  0
  1 10  1  0
  1 14  1  0
  1 17  1  0
  2 16  1  0
  3 10  1  0
  4 11  1  0
  5  6  1  0
  6  7  1  0
  6  9  1  0
  6 16  1  0
  7 15  2  0
  8 12  1  0
 10 13  1  0
 11 18  1  0
 12 13  1  0
 12 14  1  0
 13 16  1  0
 14 18  1  0
M  END
$$$$
