
     RDKit          3D

  8  7  0  0  0  0  0  0  0  0999 V2000
   -7.3898    2.7262  -32.1491 C   0  0  0  0  0  0  0  0  0  0  0  0
   -7.5178    3.4146  -33.2319 O   0  0  0  0  0  0  0  0  0  0  0  0
   -7.8789    5.3222  -28.2189 C   0  0  0  0  0  0  0  0  0  0  0  0
   -6.3124    2.0153  -31.9717 O   0  0  0  0  0  0  0  0  0  0  0  0
   -8.6233    4.1919  -28.8352 C   0  0  0  0  0  0  0  0  0  0  0  0
   -8.3680    2.9984  -31.0150 C   0  0  0  0  0  0  0  0  0  0  0  0
   -8.6645    6.4245  -27.6654 C   0  0  0  0  0  0  0  0  0  0  0  0
   -7.7334    3.4021  -29.7248 C   0  0  0  0  0  0  0  0  0  0  0  0
  1  2  2  0
  1  4  1  0
  1  6  1  0
  3  5  1  0
  3  7  1  0
  5  8  1  0
  6  8  1  0
M  END
$$$$
