
     RDKit          3D

 22 23  0  0  0  0  0  0  0  0999 V2000
   -8.6379    6.8323  -26.4429 C   0  0  0  0  0  0  0  0  0  0  0  0
  -10.8658    3.9048  -28.2286 C   0  0  0  0  0  0  0  0  0  0  0  0
  -10.0141    2.6067  -31.6943 O   0  0  0  0  0  0  0  0  0  0  0  0
  -10.6603    3.5915  -29.6170 C   0  0  0  0  0  0  0  0  0  0  0  0
  -10.7593    5.1316  -26.1391 C   0  0  0  0  0  0  0  0  0  0  0  0
   -9.8916    3.7702  -30.9213 C   0  0  0  0  0  0  0  0  0  0  0  0
   -9.9749    4.8454  -27.5540 C   0  0  0  0  0  0  0  0  0  0  0  0
   -5.4934    1.7630  -32.1294 O   0  0  0  0  0  0  0  0  0  0  0  0
   -7.7734    7.4051  -28.4957 O   0  0  0  0  0  0  0  0  0  0  0  0
   -8.9533    2.0763  -32.3254 C   0  0  0  0  0  0  0  0  0  0  0  0
   -6.4778    1.3755  -34.0683 O   0  0  0  0  0  0  0  0  0  0  0  0
   -8.4707    5.6661  -31.2543 O   0  0  0  0  0  0  0  0  0  0  0  0
   -8.1480    6.4279  -27.7594 C   0  0  0  0  0  0  0  0  0  0  0  0
  -11.4876    2.4278  -29.7685 O   0  0  0  0  0  0  0  0  0  0  0  0
   -9.0718    5.4841  -28.5627 C   0  0  0  0  0  0  0  0  0  0  0  0
   -8.5414    4.3393  -30.7288 C   0  0  0  0  0  0  0  0  0  0  0  0
   -6.4902    1.9620  -32.9218 C   0  0  0  0  0  0  0  0  0  0  0  0
   -7.4320    3.5000  -31.2638 C   0  0  0  0  0  0  0  0  0  0  0  0
   -9.2238    0.8820  -33.0290 F   0  0  0  0  0  0  0  0  0  0  0  0
   -7.6948    2.7273  -32.4519 C   0  0  0  0  0  0  0  0  0  0  0  0
   -8.3660    4.4119  -29.2739 O   0  0  0  0  0  0  0  0  0  0  0  0
   -6.2653    3.6515  -30.4400 C   0  0  0  0  0  0  0  0  0  0  0  0
  1 13  1  0
  2  4  2  0
  2  7  1  0
  3  6  1  0
  3 10  1  0
  4  6  1  0
  4 14  1  0
  5  7  1  0
  6 16  1  0
  7 15  1  0
  8 17  2  0
  9 13  1  0
 10 19  1  0
 10 20  1  0
 11 17  1  0
 12 16  1  0
 13 15  1  0
 15 21  1  0
 16 18  1  0
 16 21  1  0
 17 20  1  0
 18 20  1  0
 18 22  1  0
M  END
$$$$
