
     RDKit          3D

 15 15  0  0  0  0  0  0  0  0999 V2000
   -9.1387    4.0139  -30.0137 C   0  0  0  0  0  0  0  0  0  0  0  0
   -8.1702    5.0867  -28.0440 C   0  0  0  0  0  0  0  0  0  0  0  0
   -5.9735    1.8784  -32.0844 O   0  0  0  0  0  0  0  0  0  0  0  0
   -7.1425    2.7615  -31.7025 P   0  0  0  0  0  0  0  0  0  0  0  0
   -8.5634    1.8031  -31.5472 C   0  0  0  0  0  0  0  0  0  0  0  0
   -9.3284    5.3804  -30.6575 C   0  0  0  0  0  0  0  0  0  0  0  0
   -6.7557    3.4751  -30.2259 O   0  0  0  0  0  0  0  0  0  0  0  0
   -8.0185    6.5156  -27.8885 O   0  0  0  0  0  0  0  0  0  0  0  0
   -8.0839    6.0557  -30.8883 O   0  0  0  0  0  0  0  0  0  0  0  0
   -7.4695    3.7602  -32.8332 O   0  0  0  0  0  0  0  0  0  0  0  0
   -7.7568    4.1177  -29.2437 C   0  0  0  0  0  0  0  0  0  0  0  0
   -9.5849    4.6359  -27.6548 C   0  0  0  0  0  0  0  0  0  0  0  0
  -10.4679    5.5415  -27.0900 O   0  0  0  0  0  0  0  0  0  0  0  0
  -10.1449    3.9294  -28.9041 C   0  0  0  0  0  0  0  0  0  0  0  0
   -8.6874    1.0294  -32.7317 O   0  0  0  0  0  0  0  0  0  0  0  0
  1  6  1  0
  1 11  1  0
  1 14  1  0
  2  8  1  0
  2 11  1  0
  2 12  1  0
  3  4  1  0
  4  5  1  0
  4  7  1  0
  4 10  1  0
  5 15  1  0
  6  9  1  0
  7 11  1  0
 12 13  1  0
 12 14  1  0
M  END
$$$$
