
     RDKit          3D

 19 20  0  0  0  0  0  0  0  0999 V2000
  -21.4679   -8.0377    4.9136 C   0  0  0  0  0  0  0  0  0  0  0  0
  -16.7475   -6.3304    4.4977 C   0  0  0  0  0  0  0  0  0  0  0  0
  -12.8752   -6.7541    4.4166 C   0  0  0  0  0  0  0  0  0  0  0  0
  -14.3391   -6.2252    4.7588 C   0  0  0  0  0  0  0  0  0  0  0  0
  -11.9070   -6.4616    5.4319 C   0  0  0  0  0  0  0  0  0  0  0  0
  -21.7407   -7.6892    3.7286 O   0  0  0  0  0  0  0  0  0  0  0  0
  -18.9229   -7.0876    4.0599 C   0  0  0  0  0  0  0  0  0  0  0  0
  -10.7641   -7.1451    3.8327 C   0  0  0  0  0  0  0  0  0  0  0  0
  -11.7318   -6.8580    3.5171 N   0  0  0  0  0  0  0  0  0  0  0  0
  -14.2085   -5.4048    5.6522 N   0  0  0  0  0  0  0  0  0  0  0  0
  -10.6307   -6.8462    4.9222 N   0  0  0  0  0  0  0  0  0  0  0  0
  -19.3464   -6.8344    5.3430 C   0  0  0  0  0  0  0  0  0  0  0  0
  -17.1478   -6.0602    5.8001 C   0  0  0  0  0  0  0  0  0  0  0  0
  -17.7101   -6.7353    3.6367 C   0  0  0  0  0  0  0  0  0  0  0  0
  -12.1115   -7.0512    5.9571 O   0  0  0  0  0  0  0  0  0  0  0  0
  -20.6733   -7.1391    5.8119 C   0  0  0  0  0  0  0  0  0  0  0  0
  -18.4106   -6.2687    6.2472 C   0  0  0  0  0  0  0  0  0  0  0  0
  -15.4617   -6.2311    4.1223 N   0  0  0  0  0  0  0  0  0  0  0  0
  -22.0952   -8.9466    5.5113 O   0  0  0  0  0  0  0  0  0  0  0  0
  1  6  2  0
  1 16  1  0
  1 19  1  0
  2 13  2  0
  2 14  1  0
  2 18  1  0
  3  4  1  0
  3  5  1  0
  3  9  1  0
  4 10  2  0
  4 18  1  0
  5 11  1  0
  5 15  1  0
  7 12  1  0
  7 14  2  0
  8  9  1  0
  8 11  1  0
 12 16  1  0
 12 17  2  0
 13 17  1  0
M  END
$$$$
