
     RDKit          3D

 17 18  0  0  0  0  0  0  0  0999 V2000
  -12.2519   -7.2075    6.3339 O   0  0  0  0  0  0  0  0  0  0  0  0
  -20.3249   -5.1632    3.9638 C   0  0  0  0  0  0  0  0  0  0  0  0
  -19.9916   -5.9385    2.8525 C   0  0  0  0  0  0  0  0  0  0  0  0
  -11.6217   -7.0174    3.2540 O   0  0  0  0  0  0  0  0  0  0  0  0
  -10.0957   -7.0341    4.7826 N   0  0  0  0  0  0  0  0  0  0  0  0
  -14.8650   -6.8210    5.4120 C   0  0  0  0  0  0  0  0  0  0  0  0
  -18.2524   -5.8072    5.0292 C   0  0  0  0  0  0  0  0  0  0  0  0
  -18.7512   -6.5871    2.7991 C   0  0  0  0  0  0  0  0  0  0  0  0
  -17.8392   -6.4013    3.8113 C   0  0  0  0  0  0  0  0  0  0  0  0
  -17.1836   -5.9726    5.8753 C   0  0  0  0  0  0  0  0  0  0  0  0
  -21.6940   -4.1415    3.9603 Cl  0  0  0  0  0  0  0  0  0  0  0  0
  -16.5989   -6.5413    3.9208 N   0  0  0  0  0  0  0  0  0  0  0  0
  -11.2287   -6.7895    4.3234 C   0  0  0  0  0  0  0  0  0  0  0  0
  -16.1198   -6.4219    5.0889 N   0  0  0  0  0  0  0  0  0  0  0  0
  -12.3917   -6.4751    5.3654 C   0  0  0  0  0  0  0  0  0  0  0  0
  -19.4774   -5.2029    5.1099 C   0  0  0  0  0  0  0  0  0  0  0  0
  -13.7905   -6.4830    4.7409 C   0  0  0  0  0  0  0  0  0  0  0  0
  1 15  1  0
  2  3  1  0
  2 11  1  0
  2 16  1  0
  3  8  2  0
  4 13  2  0
  5 13  1  0
  6 14  1  0
  6 17  1  0
  7  9  1  0
  7 10  1  0
  7 16  2  0
  8  9  1  0
  9 12  2  0
 10 14  1  0
 12 14  1  0
 13 15  1  0
 15 17  1  0
M  END
$$$$
