
     RDKit          3D

 12 12  0  0  0  0  0  0  0  0999 V2000
  -18.0058   -5.0472    4.9691 C   0  0  0  0  0  0  0  0  0  0  0  0
  -18.6677   -7.5485    4.3306 C   0  0  0  0  0  0  0  0  0  0  0  0
  -17.4727   -6.9832    4.1630 C   0  0  0  0  0  0  0  0  0  0  0  0
  -12.3079   -6.6492    5.1477 C   0  0  0  0  0  0  0  0  0  0  0  0
  -19.5744   -6.8083    4.9838 C   0  0  0  0  0  0  0  0  0  0  0  0
  -17.0414   -5.8435    4.4334 C   0  0  0  0  0  0  0  0  0  0  0  0
  -13.5733   -6.5310    4.6208 N   0  0  0  0  0  0  0  0  0  0  0  0
  -12.2131   -7.2042    6.2780 O   0  0  0  0  0  0  0  0  0  0  0  0
  -11.2368   -6.8254    4.1465 N   0  0  0  0  0  0  0  0  0  0  0  0
  -19.2225   -5.4720    5.3145 C   0  0  0  0  0  0  0  0  0  0  0  0
  -14.7393   -6.3221    5.0813 C   0  0  0  0  0  0  0  0  0  0  0  0
  -15.5981   -5.4297    4.3159 C   0  0  0  0  0  0  0  0  0  0  0  0
  1  6  1  0
  1 10  2  0
  2  3  1  0
  2  5  2  0
  3  6  2  0
  4  7  1  0
  4  8  2  0
  4  9  1  0
  5 10  1  0
  6 12  1  0
  7 11  1  0
 11 12  1  0
M  END
$$$$
