
     RDKit          3D

 13 12  0  0  0  0  0  0  0  0999 V2000
  -11.9381   -6.8858    3.6594 O   0  0  0  0  0  0  0  0  0  0  0  0
  -11.8519   -7.2400    5.8572 O   0  0  0  0  0  0  0  0  0  0  0  0
  -18.8061   -6.8587    4.6039 C   0  0  0  0  0  0  0  0  0  0  0  0
  -20.1049   -7.4629    4.6159 C   0  0  0  0  0  0  0  0  0  0  0  0
  -16.7397   -6.2231    3.6599 C   0  0  0  0  0  0  0  0  0  0  0  0
  -18.0516   -6.5366    3.4520 C   0  0  0  0  0  0  0  0  0  0  0  0
  -13.9368   -6.3652    5.0443 C   0  0  0  0  0  0  0  0  0  0  0  0
  -18.2476   -6.2726    6.0784 S   0  0  0  0  0  0  0  0  0  0  0  0
  -20.9320   -7.2570    5.6473 N   0  0  0  0  0  0  0  0  0  0  0  0
  -14.9863   -7.0583    4.9922 N   0  0  0  0  0  0  0  0  0  0  0  0
  -16.0148   -6.5105    4.6443 C   0  0  0  0  0  0  0  0  0  0  0  0
  -12.4664   -6.7436    4.8424 C   0  0  0  0  0  0  0  0  0  0  0  0
  -13.9345   -5.3130    5.7338 O   0  0  0  0  0  0  0  0  0  0  0  0
  1 12  2  0
  2 12  1  0
  3  4  1  0
  3  6  1  0
  3  8  2  0
  4  9  1  0
  5  6  1  0
  5 11  1  0
  7 10  1  0
  7 12  1  0
  7 13  2  0
 10 11  1  0
M  END
$$$$
