
     RDKit          3D

 12 12  0  0  0  0  0  0  0  0999 V2000
  -18.3651   -6.2197    6.1838 N   0  0  0  0  0  0  0  0  0  0  0  0
  -14.2110   -6.3313    4.6017 N   0  0  0  0  0  0  0  0  0  0  0  0
  -17.3526   -6.3957    5.2976 C   0  0  0  0  0  0  0  0  0  0  0  0
  -19.6767   -7.4471    4.7201 N   0  0  0  0  0  0  0  0  0  0  0  0
  -18.7492   -7.3375    3.7169 C   0  0  0  0  0  0  0  0  0  0  0  0
  -11.9110   -6.8867    4.0353 O   0  0  0  0  0  0  0  0  0  0  0  0
  -12.8965   -6.6251    5.0192 C   0  0  0  0  0  0  0  0  0  0  0  0
  -16.0781   -6.0263    5.8655 C   0  0  0  0  0  0  0  0  0  0  0  0
  -17.6053   -6.5851    3.8897 C   0  0  0  0  0  0  0  0  0  0  0  0
  -12.4910   -7.1460    6.2054 O   0  0  0  0  0  0  0  0  0  0  0  0
  -15.2728   -5.6121    4.5203 C   0  0  0  0  0  0  0  0  0  0  0  0
  -19.6123   -6.6211    5.8340 C   0  0  0  0  0  0  0  0  0  0  0  0
  1  3  1  0
  1 12  2  0
  2  7  1  0
  2 11  1  0
  3  8  1  0
  3  9  1  0
  4  5  2  0
  4 12  1  0
  5  9  1  0
  6  7  2  0
  7 10  1  0
  8 11  1  0
M  END
$$$$
