
     RDKit          3D

 10  9  0  0  0  0  0  0  0  0999 V2000
  -18.2205   -4.8289    4.2704 O   0  0  0  0  0  0  0  0  0  0  0  0
  -12.2548   -7.1970    6.2967 O   0  0  0  0  0  0  0  0  0  0  0  0
  -11.5367   -7.0429    4.0679 O   0  0  0  0  0  0  0  0  0  0  0  0
  -18.4282   -7.2920    4.2963 C   0  0  0  0  0  0  0  0  0  0  0  0
  -13.7192   -6.3345    4.6262 C   0  0  0  0  0  0  0  0  0  0  0  0
  -16.1477   -6.6552    5.1864 C   0  0  0  0  0  0  0  0  0  0  0  0
  -17.8780   -6.0628    3.7497 C   0  0  0  0  0  0  0  0  0  0  0  0
  -16.4112   -6.1306    3.8599 O   0  0  0  0  0  0  0  0  0  0  0  0
  -14.7358   -6.7981    5.3604 C   0  0  0  0  0  0  0  0  0  0  0  0
  -12.3210   -6.6361    5.1375 C   0  0  0  0  0  0  0  0  0  0  0  0
  1  7  1  0
  2 10  2  0
  3 10  1  0
  4  7  1  0
  5  9  2  3
  5 10  1  0
  6  8  1  0
  6  9  1  0
  7  8  1  0
M  END
$$$$
