
     RDKit          3D

 36 42  0  0  0  0  0  0  0  0999 V2000
    5.2430   -3.1993    2.8738 C   0  0  0  0  0  0  0  0  0  0  0  0
    7.0186   -2.3584    1.8461 C   0  0  0  0  0  0  0  0  0  0  0  0
    8.7212   -3.9001    2.4915 C   0  0  0  0  0  0  0  0  0  0  0  0
    9.5831   -3.2539    1.6450 N   0  0  0  0  0  0  0  0  0  0  0  0
    4.9061   -1.0302    1.6925 C   0  0  0  0  0  0  0  0  0  0  0  0
    7.4412   -3.4171    2.6089 C   0  0  0  0  0  0  0  0  0  0  0  0
    6.2599    0.5445    5.0431 C   0  0  0  0  0  0  0  0  0  0  0  0
    4.0371   -2.9408    3.5929 C   0  0  0  0  0  0  0  0  0  0  0  0
    4.7653    0.1700    2.5286 O   0  0  0  0  0  0  0  0  0  0  0  0
    7.8834   -1.6412    1.0816 C   0  0  0  0  0  0  0  0  0  0  0  0
    5.9035    1.6038    4.1137 C   0  0  0  0  0  0  0  0  0  0  0  0
    5.0519    4.3806    3.2676 C   0  0  0  0  0  0  0  0  0  0  0  0
    3.3599    1.8409    0.8338 N   0  0  0  0  0  0  0  0  0  0  0  0
    6.4932   -3.9401    4.8032 C   0  0  0  0  0  0  0  0  0  0  0  0
    2.3547    2.6234    0.0543 N   0  0  0  0  0  0  0  0  0  0  0  0
    4.4071    3.8290    2.0942 C   0  0  0  0  0  0  0  0  0  0  0  0
    1.3099    1.8214   -0.5677 C   0  0  0  0  0  0  0  0  0  0  0  0
    9.1912   -2.1166    0.9987 C   0  0  0  0  0  0  0  0  0  0  0  0
    4.8775    1.5803    3.0264 C   0  0  0  0  0  0  0  0  0  0  0  0
    3.0777   -2.2916    2.6522 C   0  0  0  0  0  0  0  0  0  0  0  0
    3.0294    0.4664    0.4434 C   0  0  0  0  0  0  0  0  0  0  0  0
    1.6288    0.4442   -0.0524 C   0  0  0  0  0  0  0  0  0  0  0  0
    8.4793    1.6114    4.9741 C   0  0  0  0  0  0  0  0  0  0  0  0
    6.3627   -3.8469    3.3792 N   0  0  0  0  0  0  0  0  0  0  0  0
    3.6017   -1.7958    1.3933 C   0  0  0  0  0  0  0  0  0  0  0  0
    4.2280    2.3971    1.9249 C   0  0  0  0  0  0  0  0  0  0  0  0
    2.7453   -0.9612    0.6219 C   0  0  0  0  0  0  0  0  0  0  0  0
    7.5567    0.7385    5.7128 C   0  0  0  0  0  0  0  0  0  0  0  0
    7.9022    2.8288    4.4071 O   0  0  0  0  0  0  0  0  0  0  0  0
   -0.1283    2.1828   -0.7802 C   0  0  0  0  0  0  0  0  0  0  0  0
   -1.0241    1.3511   -0.4634 O   0  0  0  0  0  0  0  0  0  0  0  0
    6.5154    2.8864    4.4449 C   0  0  0  0  0  0  0  0  0  0  0  0
    4.1862    4.5628    1.1421 O   0  0  0  0  0  0  0  0  0  0  0  0
    5.7063    3.9903    4.3774 O   0  0  0  0  0  0  0  0  0  0  0  0
   -0.3877    3.2783   -1.3107 O   0  0  0  0  0  0  0  0  0  0  0  0
    5.6881   -2.1403    2.0553 N   0  0  0  0  0  0  0  0  0  0  0  0
  1  8  1  0
  1 24  1  0
  1 36  1  0
  2  6  2  0
  2 10  1  0
  2 36  1  0
  3  4  2  0
  3  6  1  0
  4 18  1  0
  5  9  1  0
  5 25  1  0
  5 36  1  0
  6 24  1  0
  7 11  1  0
  7 28  1  0
  8 20  1  0
  9 19  1  0
 10 18  2  0
 11 19  1  0
 11 32  1  0
 12 16  1  0
 12 34  1  0
 13 15  1  0
 13 21  1  0
 13 26  1  0
 14 24  1  0
 15 17  1  0
 16 26  1  0
 16 33  2  0
 17 22  1  0
 17 30  1  0
 19 26  1  0
 20 25  1  0
 21 22  1  0
 21 27  1  0
 23 28  1  0
 23 29  1  0
 25 27  1  0
 29 32  1  0
 30 31  2  0
 30 35  1  0
 32 34  1  0
M  END
$$$$
