
     RDKit          3D

 33 34  0  0  0  0  0  0  0  0999 V2000
    2.8107   -1.5962    0.9736 C   0  0  0  0  0  0  0  0  0  0  0  0
    2.3898    0.5092   -0.0087 C   0  0  0  0  0  0  0  0  0  0  0  0
    7.4968   -1.6958    1.8407 C   0  0  0  0  0  0  0  0  0  0  0  0
    2.2210    2.8162   -0.5677 N   0  0  0  0  0  0  0  0  0  0  0  0
    0.2579    1.5632   -0.5983 C   0  0  0  0  0  0  0  0  0  0  0  0
    3.5144   -1.0976    6.8876 O   0  0  0  0  0  0  0  0  0  0  0  0
    6.3958    1.6569    4.1197 C   0  0  0  0  0  0  0  0  0  0  0  0
    7.9814   -1.1323    0.5872 C   0  0  0  0  0  0  0  0  0  0  0  0
    8.0109   -2.8909    2.3760 C   0  0  0  0  0  0  0  0  0  0  0  0
    6.3839    0.1276    3.8888 C   0  0  0  0  0  0  0  0  0  0  0  0
    8.8544   -3.7979    2.0779 C   0  0  0  0  0  0  0  0  0  0  0  0
    1.6248    1.6561   -0.2413 C   0  0  0  0  0  0  0  0  0  0  0  0
    8.8237   -1.6930   -0.2552 C   0  0  0  0  0  0  0  0  0  0  0  0
    7.8991    2.2369    3.9058 C   0  0  0  0  0  0  0  0  0  0  0  0
    7.2632    3.8134    3.4150 C   0  0  0  0  0  0  0  0  0  0  0  0
    7.0730   -0.1164    7.5287 C   0  0  0  0  0  0  0  0  0  0  0  0
    3.7175    0.4935    0.3611 C   0  0  0  0  0  0  0  0  0  0  0  0
    5.9196   -1.8383    2.0164 C   0  0  0  0  0  0  0  0  0  0  0  0
    9.6007   -3.7639    0.9053 C   0  0  0  0  0  0  0  0  0  0  0  0
    5.7044    3.0816    3.3849 P   0  0  0  0  0  0  0  0  0  0  0  0
    4.7376   -0.9001    2.2002 C   0  0  0  0  0  0  0  0  0  0  0  0
    5.3159    2.9281    1.9887 O   0  0  0  0  0  0  0  0  0  0  0  0
    6.3738   -0.5126    5.2352 C   0  0  0  0  0  0  0  0  0  0  0  0
   -0.2291    2.7433   -1.2056 N   0  0  0  0  0  0  0  0  0  0  0  0
    5.4206   -1.3856    5.6283 N   0  0  0  0  0  0  0  0  0  0  0  0
    4.0169   -0.7523    0.9472 C   0  0  0  0  0  0  0  0  0  0  0  0
    4.0606   -1.5604    5.8045 C   0  0  0  0  0  0  0  0  0  0  0  0
    7.4540    0.0261    6.1580 C   0  0  0  0  0  0  0  0  0  0  0  0
    1.8036   -0.7828    0.3012 C   0  0  0  0  0  0  0  0  0  0  0  0
    9.5084   -2.8524   -0.1096 C   0  0  0  0  0  0  0  0  0  0  0  0
    3.4091   -2.2752    5.0178 O   0  0  0  0  0  0  0  0  0  0  0  0
    4.8096    3.7553    4.2734 O   0  0  0  0  0  0  0  0  0  0  0  0
    7.4992   -0.4038    2.9269 C   0  0  0  0  0  0  0  0  0  0  0  0
  1 26  1  0
  1 29  1  0
  2 12  1  0
  2 17  1  0
  2 29  1  0
  3  8  1  0
  3  9  1  0
  3 18  1  0
  3 33  1  0
  4 12  1  0
  5 12  1  0
  5 24  1  0
  6 27  2  0
  7 10  1  0
  7 14  1  0
  8 13  2  0
  9 11  2  0
 10 23  1  0
 10 33  1  0
 11 19  1  0
 13 30  1  0
 14 15  1  0
 15 20  1  0
 16 28  1  0
 17 26  1  0
 18 21  1  0
 19 30  2  0
 20 22  1  0
 20 32  1  0
 21 26  1  0
 23 25  1  0
 23 28  1  0
 25 27  1  0
 27 31  1  0
M  END
$$$$
