
     RDKit          3D

 21 21  0  0  0  0  0  0  0  0999 V2000
    4.9498   -0.6696    2.3054 C   0  0  0  0  0  0  0  0  0  0  0  0
    6.4584   -0.3655    2.1376 C   0  0  0  0  0  0  0  0  0  0  0  0
    5.0157    4.0676    2.7745 C   0  0  0  0  0  0  0  0  0  0  0  0
    9.1831   -1.3094   -1.0716 C   0  0  0  0  0  0  0  0  0  0  0  0
    0.5080    2.5952   -0.9888 N   0  0  0  0  0  0  0  0  0  0  0  0
    4.7813   -1.9318    3.2698 C   0  0  0  0  0  0  0  0  0  0  0  0
    9.2056   -2.2941    0.1137 C   0  0  0  0  0  0  0  0  0  0  0  0
    3.6013    2.2808    1.7811 C   0  0  0  0  0  0  0  0  0  0  0  0
    1.2925    2.2396    0.2024 C   0  0  0  0  0  0  0  0  0  0  0  0
    2.4410    0.8615   -1.2719 O   0  0  0  0  0  0  0  0  0  0  0  0
    4.7856    4.8769    1.8257 O   0  0  0  0  0  0  0  0  0  0  0  0
    3.4197    1.0419    0.8718 C   0  0  0  0  0  0  0  0  0  0  0  0
    2.1451    0.9469    0.0690 C   0  0  0  0  0  0  0  0  0  0  0  0
    5.1152    4.3255    3.9780 O   0  0  0  0  0  0  0  0  0  0  0  0
    2.2407   -2.2064    1.9055 O   0  0  0  0  0  0  0  0  0  0  0  0
    8.7016   -1.3593    1.2765 C   0  0  0  0  0  0  0  0  0  0  0  0
    2.6419   -1.1944    1.1435 C   0  0  0  0  0  0  0  0  0  0  0  0
    7.1730   -1.3582    1.1559 C   0  0  0  0  0  0  0  0  0  0  0  0
    3.6903   -0.2734    1.5713 C   0  0  0  0  0  0  0  0  0  0  0  0
    5.0422    2.5476    2.3517 C   0  0  0  0  0  0  0  0  0  0  0  0
    1.6225   -0.4042    0.5089 N   0  0  0  0  0  0  0  0  0  0  0  0
  1  2  1  0
  1  6  1  0
  1 19  1  0
  2 18  1  0
  3 11  2  0
  3 14  1  0
  3 20  1  0
  4  7  1  0
  5  9  1  0
  7 16  1  0
  8 12  1  0
  8 20  1  0
  9 13  1  0
 10 13  1  0
 12 13  1  0
 12 19  1  0
 13 21  1  0
 15 17  2  0
 16 18  1  0
 17 19  1  0
 17 21  1  0
M  END
$$$$
