
     RDKit          3D

 16 15  0  0  0  0  0  0  0  0999 V2000
   22.2908   23.0648   20.4107 O   0  0  0  0  0  0  0  0  0  0  0  0
   23.0379   21.1186   22.8899 O   0  0  0  0  0  0  0  0  0  0  0  0
   24.2702   19.4872   21.9733 O   0  0  0  0  0  0  0  0  0  0  0  0
   23.4208   20.3613   21.8929 C   0  0  0  0  0  0  0  0  0  0  0  0
   24.1877   22.1696   17.1357 C   0  0  0  0  0  0  0  0  0  0  0  0
   20.2533   24.0476   21.8614 O   0  0  0  0  0  0  0  0  0  0  0  0
   22.8392   20.9792   19.4878 O   0  0  0  0  0  0  0  0  0  0  0  0
   20.9347   23.4289   20.8491 C   0  0  0  0  0  0  0  0  0  0  0  0
   23.2904   22.9868   18.0784 C   0  0  0  0  0  0  0  0  0  0  0  0
   22.5060   20.3497   20.7085 C   0  0  0  0  0  0  0  0  0  0  0  0
   22.6393   22.3670   19.2516 C   0  0  0  0  0  0  0  0  0  0  0  0
   24.6874   24.6860   17.1500 O   0  0  0  0  0  0  0  0  0  0  0  0
   18.6834   23.1768   20.0422 O   0  0  0  0  0  0  0  0  0  0  0  0
   23.7237   24.4149   18.2017 C   0  0  0  0  0  0  0  0  0  0  0  0
   21.5845   19.1391   20.7280 C   0  0  0  0  0  0  0  0  0  0  0  0
   19.9515   22.6240   20.0595 C   0  0  0  0  0  0  0  0  0  0  0  0
  1  8  1  0
  1 11  1  0
  2  4  2  0
  3  4  1  0
  4 10  1  0
  5  9  1  0
  6  8  2  0
  7 10  1  0
  7 11  1  0
  8 16  1  0
  9 11  1  0
  9 14  1  0
 10 15  1  0
 12 14  1  0
 13 16  1  0
M  END
$$$$
