
     RDKit          3D

 23 23  0  0  0  0  0  0  0  0999 V2000
   23.2398   19.3755   20.6435 C   0  0  0  0  0  0  0  0  0  0  0  0
   23.7343   22.8473   16.7823 C   0  0  0  0  0  0  0  0  0  0  0  0
   23.8119   19.4446   22.0345 C   0  0  0  0  0  0  0  0  0  0  0  0
   21.8697   19.0134   20.8533 O   0  0  0  0  0  0  0  0  0  0  0  0
   21.9741   22.6740   23.5461 O   0  0  0  0  0  0  0  0  0  0  0  0
   23.3391   20.7761   20.0057 C   0  0  0  0  0  0  0  0  0  0  0  0
   21.3785   22.3521   21.2396 C   0  0  0  0  0  0  0  0  0  0  0  0
   18.4366   24.3828   21.0670 O   0  0  0  0  0  0  0  0  0  0  0  0
   22.6078   22.8533   17.5190 C   0  0  0  0  0  0  0  0  0  0  0  0
   19.9726   22.7081   21.5556 C   0  0  0  0  0  0  0  0  0  0  0  0
   19.6258   24.1454   21.3240 C   0  0  0  0  0  0  0  0  0  0  0  0
   24.0535   18.4101   19.7352 C   0  0  0  0  0  0  0  0  0  0  0  0
   20.4492   25.0644   21.5059 O   0  0  0  0  0  0  0  0  0  0  0  0
   26.1168   22.8135   16.8947 C   0  0  0  0  0  0  0  0  0  0  0  0
   22.3695   23.3909   18.7748 C   0  0  0  0  0  0  0  0  0  0  0  0
   24.9746   24.7442   17.8607 C   0  0  0  0  0  0  0  0  0  0  0  0
   22.8959   24.6475   19.1786 C   0  0  0  0  0  0  0  0  0  0  0  0
   24.0533   25.2860   18.7466 C   0  0  0  0  0  0  0  0  0  0  0  0
   21.5408   22.5379   19.7159 C   0  0  0  0  0  0  0  0  0  0  0  0
   22.4171   22.7120   22.1744 C   0  0  0  0  0  0  0  0  0  0  0  0
   24.8945   23.5315   17.1572 C   0  0  0  0  0  0  0  0  0  0  0  0
   21.9941   21.0477   19.2575 C   0  0  0  0  0  0  0  0  0  0  0  0
   25.1845   19.0827   19.0838 C   0  0  0  0  0  0  0  0  0  0  0  0
  1  3  1  0
  1  4  1  0
  1  6  1  0
  1 12  1  0
  2  9  2  0
  2 21  1  0
  5 20  1  0
  6 22  1  0
  7 10  1  0
  7 19  1  0
  7 20  1  0
  8 11  2  0
  9 15  1  0
 10 11  1  0
 11 13  1  0
 12 23  1  0
 14 21  1  0
 15 17  1  0
 15 19  1  0
 16 18  1  0
 16 21  1  0
 17 18  2  0
 19 22  1  0
M  END
$$$$
