
     RDKit          3D

 14 14  0  0  0  0  0  0  0  0999 V2000
   24.4579   21.8271   22.0993 C   0  0  0  0  0  0  0  0  0  0  0  0
   19.3543   23.6910   21.2196 O   0  0  0  0  0  0  0  0  0  0  0  0
   20.7475   20.8131   19.0010 C   0  0  0  0  0  0  0  0  0  0  0  0
   21.8088   21.8983   19.3646 C   0  0  0  0  0  0  0  0  0  0  0  0
   19.6361   22.9167   20.2094 C   0  0  0  0  0  0  0  0  0  0  0  0
   22.8701   23.6706   17.9959 C   0  0  0  0  0  0  0  0  0  0  0  0
   23.8651   22.1464   20.7251 C   0  0  0  0  0  0  0  0  0  0  0  0
   22.7997   21.1962   20.2988 C   0  0  0  0  0  0  0  0  0  0  0  0
   23.2066   19.7988   19.9215 C   0  0  0  0  0  0  0  0  0  0  0  0
   23.2742   23.5796   20.7609 C   0  0  0  0  0  0  0  0  0  0  0  0
   23.2525   24.2555   19.3872 C   0  0  0  0  0  0  0  0  0  0  0  0
   22.6982   22.1499   18.0644 C   0  0  0  0  0  0  0  0  0  0  0  0
   23.3913   21.0945   22.9023 C   0  0  0  0  0  0  0  0  0  0  0  0
   20.8892   23.1134   19.5852 C   0  0  0  0  0  0  0  0  0  0  0  0
  1  7  1  0
  1 13  1  0
  2  5  1  0
  3  4  1  0
  4  8  1  0
  4 12  1  0
  4 14  1  0
  5 14  1  0
  6 11  1  0
  6 12  1  0
  7  8  1  0
  7 10  1  0
  8  9  1  0
 10 11  1  0
M  END
$$$$
