
     RDKit          3D

 19 19  0  0  0  0  0  0  0  0999 V2000
   20.9608   18.2329   20.9481 O   0  0  0  0  0  0  0  0  0  0  0  0
   19.9970   23.1651   22.6302 O   0  0  0  0  0  0  0  0  0  0  0  0
   22.0302   23.2210   16.4513 C   0  0  0  0  0  0  0  0  0  0  0  0
   23.6793   22.0970   21.4722 O   0  0  0  0  0  0  0  0  0  0  0  0
   20.6914   25.2975   21.6287 O   0  0  0  0  0  0  0  0  0  0  0  0
   23.0890   24.6596   18.2507 O   0  0  0  0  0  0  0  0  0  0  0  0
   18.9912   23.7011   20.5130 O   0  0  0  0  0  0  0  0  0  0  0  0
   22.0337   20.3422   20.9359 C   0  0  0  0  0  0  0  0  0  0  0  0
   23.1320   25.5867   17.0779 C   0  0  0  0  0  0  0  0  0  0  0  0
   21.6143   21.4519   18.7727 C   0  0  0  0  0  0  0  0  0  0  0  0
   20.3072   23.8712   21.3058 P   0  0  0  0  0  0  0  0  0  0  0  0
   22.7029   21.1247   22.0634 C   0  0  0  0  0  0  0  0  0  0  0  0
   23.1859   18.3470   20.5679 O   0  0  0  0  0  0  0  0  0  0  0  0
   23.1410   23.0854   20.5839 O   0  0  0  0  0  0  0  0  0  0  0  0
   21.6885   23.1877   20.4874 C   0  0  0  0  0  0  0  0  0  0  0  0
   22.0972   18.8205   20.9192 C   0  0  0  0  0  0  0  0  0  0  0  0
   21.3493   22.9944   18.9986 C   0  0  0  0  0  0  0  0  0  0  0  0
   22.5412   20.8350   19.7060 O   0  0  0  0  0  0  0  0  0  0  0  0
   22.2539   23.6131   17.9995 C   0  0  0  0  0  0  0  0  0  0  0  0
  1 16  2  0
  2 11  1  0
  3 19  1  0
  4 12  1  0
  4 14  1  0
  5 11  1  0
  6  9  1  0
  6 19  1  0
  7 11  1  0
  8 12  1  0
  8 16  1  0
  8 18  1  0
 10 17  1  0
 10 18  1  0
 11 15  1  0
 13 16  1  0
 14 15  1  0
 15 17  1  0
 17 19  1  0
M  END
$$$$
