
     RDKit          3D

 32 34  0  0  0  0  0  0  0  0999 V2000
  -16.3145   -8.1843   17.5650 O   0  0  0  0  0  0  0  0  0  0  0  0
  -22.0533  -12.3347    6.0035 C   0  0  0  0  0  0  0  0  0  0  0  0
  -18.7273  -13.6534    7.6441 C   0  0  0  0  0  0  0  0  0  0  0  0
  -16.5771  -13.3065    8.1250 C   0  0  0  0  0  0  0  0  0  0  0  0
  -20.8530  -12.4001    8.6234 C   0  0  0  0  0  0  0  0  0  0  0  0
  -20.0773  -13.1889    7.6080 O   0  0  0  0  0  0  0  0  0  0  0  0
  -17.9633  -12.8770    8.7910 C   0  0  0  0  0  0  0  0  0  0  0  0
  -19.2685   -7.4101   12.8816 C   0  0  0  0  0  0  0  0  0  0  0  0
  -14.7027   -6.8289   16.1045 O   0  0  0  0  0  0  0  0  0  0  0  0
  -20.2350  -12.8566   10.1657 C   0  0  0  0  0  0  0  0  0  0  0  0
  -22.4872  -10.4747   12.4960 N   0  0  0  0  0  0  0  0  0  0  0  0
  -17.2124   -7.0222   15.2504 C   0  0  0  0  0  0  0  0  0  0  0  0
  -21.2145   -9.3862   14.0825 O   0  0  0  0  0  0  0  0  0  0  0  0
  -16.7973   -8.1568   14.7236 C   0  0  0  0  0  0  0  0  0  0  0  0
  -16.4809   -5.7506   17.5250 O   0  0  0  0  0  0  0  0  0  0  0  0
  -21.4496  -10.9906    9.4802 C   0  0  0  0  0  0  0  0  0  0  0  0
  -21.8939  -11.6112   11.8815 C   0  0  0  0  0  0  0  0  0  0  0  0
  -16.0529   -6.9118   16.7845 S   0  0  0  0  0  0  0  0  0  0  0  0
  -17.7982  -10.7040   12.4390 C   0  0  0  0  0  0  0  0  0  0  0  0
  -17.3151  -14.3058    7.2296 C   0  0  0  0  0  0  0  0  0  0  0  0
  -18.7904  -12.8584    9.9925 N   0  0  0  0  0  0  0  0  0  0  0  0
  -22.1493  -12.1062    7.4257 C   0  0  0  0  0  0  0  0  0  0  0  0
  -23.7229   -9.9522   12.6005 O   0  0  0  0  0  0  0  0  0  0  0  0
  -20.8773   -8.8713   11.6590 C   0  0  0  0  0  0  0  0  0  0  0  0
  -20.6573  -13.8822   10.8642 O   0  0  0  0  0  0  0  0  0  0  0  0
  -21.5177   -9.4569   12.8718 C   0  0  0  0  0  0  0  0  0  0  0  0
  -17.7223   -9.4560   13.1577 C   0  0  0  0  0  0  0  0  0  0  0  0
  -20.0078   -7.7527   11.5574 C   0  0  0  0  0  0  0  0  0  0  0  0
  -21.3337  -13.4008    5.2044 C   0  0  0  0  0  0  0  0  0  0  0  0
  -20.8670  -11.5746   10.8199 N   0  0  0  0  0  0  0  0  0  0  0  0
  -16.6536   -9.2625   14.1355 C   0  0  0  0  0  0  0  0  0  0  0  0
  -18.4657   -8.4908   13.1479 C   0  0  0  0  0  0  0  0  0  0  0  0
  1 18  1  0
  2 22  1  0
  2 29  1  0
  3  6  1  0
  3  7  1  0
  3 20  1  0
  4  7  1  0
  4 20  1  0
  5  6  1  0
  5 10  1  0
  5 16  1  0
  5 22  1  0
  7 21  1  0
  8 28  1  0
  8 32  1  0
  9 18  1  0
 10 21  1  0
 10 25  1  0
 10 30  1  0
 11 17  1  0
 11 23  1  0
 11 26  1  0
 12 14  1  0
 12 18  1  0
 13 26  2  0
 14 31  1  0
 15 18  1  0
 16 30  1  0
 17 30  1  0
 19 27  1  0
 24 26  1  0
 24 28  1  0
 27 31  1  0
 27 32  1  0
M  END
$$$$
