
     RDKit          3D

 33 35  0  0  0  0  0  0  0  0999 V2000
  -20.3519  -13.4533    6.1648 C   0  0  0  0  0  0  0  0  0  0  0  0
  -20.4712  -10.1711   13.0364 O   0  0  0  0  0  0  0  0  0  0  0  0
  -21.9965  -10.4390   12.6532 P   0  0  0  0  0  0  0  0  0  0  0  0
  -19.9566  -10.6637   15.5741 O   0  0  0  0  0  0  0  0  0  0  0  0
  -14.7125   -6.6107   15.3773 O   0  0  0  0  0  0  0  0  0  0  0  0
  -21.9176   -9.9376   11.0194 C   0  0  0  0  0  0  0  0  0  0  0  0
  -20.5510  -12.3399    9.6512 C   0  0  0  0  0  0  0  0  0  0  0  0
  -22.4839  -12.3800    6.4215 C   0  0  0  0  0  0  0  0  0  0  0  0
  -18.8721  -13.2388    8.1717 C   0  0  0  0  0  0  0  0  0  0  0  0
  -21.0335  -12.4512    8.2547 C   0  0  0  0  0  0  0  0  0  0  0  0
  -17.6980  -13.8292    7.6484 C   0  0  0  0  0  0  0  0  0  0  0  0
  -17.8605  -12.4230   11.5776 O   0  0  0  0  0  0  0  0  0  0  0  0
  -20.7586   -8.8649   11.0972 C   0  0  0  0  0  0  0  0  0  0  0  0
  -20.0539  -13.0871    7.4343 C   0  0  0  0  0  0  0  0  0  0  0  0
  -16.2457   -4.8875   14.5888 O   0  0  0  0  0  0  0  0  0  0  0  0
  -18.2481   -9.3033   14.2787 C   0  0  0  0  0  0  0  0  0  0  0  0
  -16.9771   -7.2958   14.2126 C   0  0  0  0  0  0  0  0  0  0  0  0
  -19.0388  -12.6743    9.4444 N   0  0  0  0  0  0  0  0  0  0  0  0
  -20.9270  -13.1787   10.6794 O   0  0  0  0  0  0  0  0  0  0  0  0
  -16.9900   -8.6844   14.6063 C   0  0  0  0  0  0  0  0  0  0  0  0
  -22.8577   -9.3738   13.2894 O   0  0  0  0  0  0  0  0  0  0  0  0
  -18.8863   -9.8725   15.4644 C   0  0  0  0  0  0  0  0  0  0  0  0
  -21.5778  -13.0929    5.6394 C   0  0  0  0  0  0  0  0  0  0  0  0
  -20.0425   -8.8905   12.4712 C   0  0  0  0  0  0  0  0  0  0  0  0
  -18.9984   -8.3639   13.3850 C   0  0  0  0  0  0  0  0  0  0  0  0
  -16.7752   -6.2508   16.6148 O   0  0  0  0  0  0  0  0  0  0  0  0
  -18.2738   -7.0457   13.4967 C   0  0  0  0  0  0  0  0  0  0  0  0
  -18.0401  -12.3784   10.3503 C   0  0  0  0  0  0  0  0  0  0  0  0
  -16.1757   -6.2314   15.2456 P   0  0  0  0  0  0  0  0  0  0  0  0
  -21.2454  -10.9943   10.1922 C   0  0  0  0  0  0  0  0  0  0  0  0
  -22.5027  -11.7888   12.8060 O   0  0  0  0  0  0  0  0  0  0  0  0
  -22.1825  -12.0259    7.7194 C   0  0  0  0  0  0  0  0  0  0  0  0
  -15.8729   -9.4363   14.6157 O   0  0  0  0  0  0  0  0  0  0  0  0
  1 14  2  0
  1 23  1  0
  2  3  1  0
  2 24  1  0
  3 21  1  0
  3 31  1  0
  4 22  1  0
  5 29  1  0
  6 13  1  0
  6 30  1  0
  7 10  1  0
  7 18  1  0
  7 19  1  0
  7 30  1  0
  8 23  2  0
  8 32  1  0
  9 11  1  0
  9 14  1  0
  9 18  1  0
 10 14  1  0
 10 32  2  0
 12 28  2  0
 13 24  1  0
 15 29  1  0
 16 20  1  0
 16 22  1  0
 16 25  1  0
 17 20  1  0
 17 27  1  0
 17 29  1  0
 18 28  1  0
 20 33  1  0
 24 25  1  0
 25 27  1  0
 26 29  1  0
M  END
$$$$
