
     RDKit          3D

 28 29  0  0  0  0  0  0  0  0999 V2000
  -10.8874   -6.0046    1.8648 C   0  0  0  0  0  0  0  0  0  0  0  0
  -18.8334   -6.2203    5.6541 C   0  0  0  0  0  0  0  0  0  0  0  0
  -12.0034   -2.8575   -0.6922 C   0  0  0  0  0  0  0  0  0  0  0  0
  -22.6070   -5.7770    5.1243 O   0  0  0  0  0  0  0  0  0  0  0  0
  -11.2363   -6.3287    3.3681 C   0  0  0  0  0  0  0  0  0  0  0  0
  -19.7036   -5.8111    6.7393 C   0  0  0  0  0  0  0  0  0  0  0  0
  -12.2616   -3.0452   -2.0100 O   0  0  0  0  0  0  0  0  0  0  0  0
  -11.4684   -1.0544   -2.7491 O   0  0  0  0  0  0  0  0  0  0  0  0
  -19.2717   -4.5865    3.9888 F   0  0  0  0  0  0  0  0  0  0  0  0
  -19.2438   -5.9522    4.2359 C   0  0  0  0  0  0  0  0  0  0  0  0
  -12.0585   -2.0449   -3.0468 C   0  0  0  0  0  0  0  0  0  0  0  0
  -20.9454   -6.6084    6.5404 C   0  0  0  0  0  0  0  0  0  0  0  0
  -12.6539   -2.1895   -4.2200 C   0  0  0  0  0  0  0  0  0  0  0  0
  -10.3111   -6.7704    4.1572 O   0  0  0  0  0  0  0  0  0  0  0  0
  -16.9534   -6.1333    4.3205 C   0  0  0  0  0  0  0  0  0  0  0  0
  -21.4863   -6.4427    5.1712 C   0  0  0  0  0  0  0  0  0  0  0  0
  -12.5711   -6.6463    3.8127 C   0  0  0  0  0  0  0  0  0  0  0  0
  -18.0735   -6.4915    3.5424 N   0  0  0  0  0  0  0  0  0  0  0  0
  -15.0091   -7.3606    5.9971 O   0  0  0  0  0  0  0  0  0  0  0  0
  -20.5620   -7.3984    2.7745 C   0  0  0  0  0  0  0  0  0  0  0  0
  -17.4370   -5.9850    5.6939 C   0  0  0  0  0  0  0  0  0  0  0  0
  -11.9414   -4.9271    1.4422 O   0  0  0  0  0  0  0  0  0  0  0  0
  -21.7356   -6.4360    2.7744 C   0  0  0  0  0  0  0  0  0  0  0  0
  -13.1515   -6.1233    5.0671 C   0  0  0  0  0  0  0  0  0  0  0  0
  -20.6893   -6.5625    3.9056 C   0  0  0  0  0  0  0  0  0  0  0  0
  -14.6234   -6.3803    5.2406 C   0  0  0  0  0  0  0  0  0  0  0  0
  -15.4862   -5.8638    4.1822 C   0  0  0  0  0  0  0  0  0  0  0  0
  -11.8314   -4.2234    0.1543 C   0  0  0  0  0  0  0  0  0  0  0  0
  1  5  1  0
  1 22  1  0
  2  6  1  0
  2 10  1  0
  2 21  1  0
  3  7  1  0
  3 28  1  0
  4 16  1  0
  5 14  1  0
  5 17  1  0
  6 12  1  0
  7 11  1  0
  8 11  2  0
  9 10  1  0
 10 18  1  0
 10 25  1  0
 11 13  1  0
 12 16  1  0
 15 18  1  0
 15 21  1  0
 15 27  1  0
 16 25  1  0
 17 24  1  0
 19 26  1  0
 20 23  1  0
 20 25  1  0
 22 28  1  0
 24 26  1  0
 26 27  1  0
M  END
$$$$
