
     RDKit          3D

 27 32  0  0  0  0  0  0  0  0999 V2000
  -18.3881   16.4015  -26.4518 C   0  0  0  0  0  0  0  0  0  0  0  0
  -20.8351   17.4066  -31.4954 C   0  0  0  0  0  0  0  0  0  0  0  0
  -19.8881   17.3744  -32.7086 C   0  0  0  0  0  0  0  0  0  0  0  0
  -16.0621   16.7581  -30.2572 C   0  0  0  0  0  0  0  0  0  0  0  0
  -15.0591   14.9361  -29.1662 C   0  0  0  0  0  0  0  0  0  0  0  0
  -16.7757   14.1815  -27.3764 C   0  0  0  0  0  0  0  0  0  0  0  0
  -21.0398   16.2959  -27.3657 C   0  0  0  0  0  0  0  0  0  0  0  0
  -20.6143   14.8874  -31.9149 C   0  0  0  0  0  0  0  0  0  0  0  0
  -19.9110   15.8480  -28.2688 C   0  0  0  0  0  0  0  0  0  0  0  0
  -20.7186   16.7988  -26.0977 C   0  0  0  0  0  0  0  0  0  0  0  0
  -23.3446   17.5505  -27.5358 C   0  0  0  0  0  0  0  0  0  0  0  0
  -19.4962   14.9919  -32.8459 C   0  0  0  0  0  0  0  0  0  0  0  0
  -18.4764   16.2237  -30.9100 C   0  0  0  0  0  0  0  0  0  0  0  0
  -19.4093   16.9341  -25.6973 C   0  0  0  0  0  0  0  0  0  0  0  0
  -17.3131   17.3517  -30.8080 C   0  0  0  0  0  0  0  0  0  0  0  0
  -22.5085   16.3241  -27.6629 C   0  0  0  0  0  0  0  0  0  0  0  0
  -17.4856   15.0568  -28.3393 C   0  0  0  0  0  0  0  0  0  0  0  0
  -18.7596   16.3257  -32.5004 C   0  0  0  0  0  0  0  0  0  0  0  0
  -14.1202   14.3721  -26.7149 C   0  0  0  0  0  0  0  0  0  0  0  0
  -16.4379   15.4269  -29.4131 C   0  0  0  0  0  0  0  0  0  0  0  0
  -14.5705   14.2951  -28.1587 C   0  0  0  0  0  0  0  0  0  0  0  0
  -22.3447   15.7379  -30.3468 C   0  0  0  0  0  0  0  0  0  0  0  0
  -20.8839   15.8783  -30.8256 C   0  0  0  0  0  0  0  0  0  0  0  0
  -22.7915   15.6782  -28.9664 O   0  0  0  0  0  0  0  0  0  0  0  0
  -19.6826   15.7783  -29.8898 C   0  0  0  0  0  0  0  0  0  0  0  0
  -18.6515   15.7396  -27.6479 C   0  0  0  0  0  0  0  0  0  0  0  0
  -15.7668   13.3942  -28.0755 C   0  0  0  0  0  0  0  0  0  0  0  0
  1 14  1  0
  1 26  2  0
  2  3  1  0
  2 23  1  0
  3 18  1  0
  4 15  1  0
  4 20  1  0
  5 20  1  0
  5 21  1  0
  6 17  1  0
  6 27  1  0
  7  9  1  0
  7 10  1  0
  7 16  1  0
  8 12  1  0
  8 23  1  0
  9 25  1  0
  9 26  1  0
 10 14  2  0
 11 16  1  0
 12 18  1  0
 13 15  1  0
 13 18  1  0
 13 25  1  0
 16 24  1  0
 17 20  1  0
 17 26  1  0
 19 21  1  0
 21 27  1  0
 22 23  1  0
 22 24  1  0
 23 25  1  0
M  END
$$$$
