
     RDKit          3D

 22 24  0  0  0  0  0  0  0  0999 V2000
  -18.8661   16.8744  -31.1648 C   0  0  0  0  0  0  0  0  0  0  0  0
  -20.7495   16.2151  -29.4512 C   0  0  0  0  0  0  0  0  0  0  0  0
  -21.4126   17.2468  -26.5947 C   0  0  0  0  0  0  0  0  0  0  0  0
  -19.4414   15.7948  -30.1884 C   0  0  0  0  0  0  0  0  0  0  0  0
  -18.3397   15.0931  -29.3596 C   0  0  0  0  0  0  0  0  0  0  0  0
  -14.8794   13.4555  -26.6096 C   0  0  0  0  0  0  0  0  0  0  0  0
  -21.6269   16.9131  -30.5827 C   0  0  0  0  0  0  0  0  0  0  0  0
  -13.2751   14.6719  -27.9371 O   0  0  0  0  0  0  0  0  0  0  0  0
  -19.4504   18.1268  -31.6775 C   0  0  0  0  0  0  0  0  0  0  0  0
  -16.5694   15.7972  -26.4294 C   0  0  0  0  0  0  0  0  0  0  0  0
  -22.9964   17.1925  -29.9916 C   0  0  0  0  0  0  0  0  0  0  0  0
  -16.8189   14.7454  -28.8531 C   0  0  0  0  0  0  0  0  0  0  0  0
  -18.7741   15.2057  -27.8143 C   0  0  0  0  0  0  0  0  0  0  0  0
  -21.4946   16.5532  -28.0617 C   0  0  0  0  0  0  0  0  0  0  0  0
  -15.1081   16.1085  -26.9893 C   0  0  0  0  0  0  0  0  0  0  0  0
  -17.2834   14.6617  -27.3316 C   0  0  0  0  0  0  0  0  0  0  0  0
  -22.9274   16.9422  -28.5175 C   0  0  0  0  0  0  0  0  0  0  0  0
  -20.1165   16.9213  -25.9261 C   0  0  0  0  0  0  0  0  0  0  0  0
  -19.2891   16.0118  -26.6895 O   0  0  0  0  0  0  0  0  0  0  0  0
  -17.5741   16.5787  -31.4790 O   0  0  0  0  0  0  0  0  0  0  0  0
  -23.8981   17.2704  -27.4940 C   0  0  0  0  0  0  0  0  0  0  0  0
  -14.3192   14.7331  -26.9914 C   0  0  0  0  0  0  0  0  0  0  0  0
  1  4  1  0
  1  9  1  0
  1 20  1  0
  2  4  1  0
  2  7  1  0
  2 14  1  0
  3 14  1  0
  3 18  1  0
  4  5  1  0
  5 12  1  0
  5 13  1  0
  6 22  1  0
  7 11  1  0
  8 22  1  0
 10 15  1  0
 10 16  1  0
 11 17  1  0
 12 16  1  0
 13 16  1  0
 13 19  1  0
 14 17  1  0
 15 22  1  0
 17 21  1  0
 18 19  1  0
M  END
$$$$
