
     RDKit          3D

 31 35  0  0  0  0  0  0  0  0999 V2000
  -19.0438   17.1192  -27.3303 N   0  0  0  0  0  0  0  0  0  0  0  0
  -22.5589   16.7510  -29.5407 C   0  0  0  0  0  0  0  0  0  0  0  0
  -18.6217   17.2335  -26.0752 C   0  0  0  0  0  0  0  0  0  0  0  0
  -23.5234   14.6204  -30.0697 O   0  0  0  0  0  0  0  0  0  0  0  0
  -17.2698   15.7485  -27.9607 N   0  0  0  0  0  0  0  0  0  0  0  0
  -14.7951   14.6063  -27.6981 C   0  0  0  0  0  0  0  0  0  0  0  0
  -17.9191   15.3067  -33.9394 C   0  0  0  0  0  0  0  0  0  0  0  0
  -16.7986   16.9654  -24.5119 C   0  0  0  0  0  0  0  0  0  0  0  0
  -18.7539   16.4233  -33.8611 C   0  0  0  0  0  0  0  0  0  0  0  0
  -16.6015   16.0497  -26.7490 C   0  0  0  0  0  0  0  0  0  0  0  0
  -19.4020   17.8402  -25.0989 C   0  0  0  0  0  0  0  0  0  0  0  0
  -20.2190   16.6110  -29.7973 C   0  0  0  0  0  0  0  0  0  0  0  0
  -21.9159   18.0562  -29.0787 C   0  0  0  0  0  0  0  0  0  0  0  0
  -16.5357   15.3472  -34.4971 C   0  0  0  0  0  0  0  0  0  0  0  0
  -20.1454   15.2836  -32.2312 C   0  0  0  0  0  0  0  0  0  0  0  0
  -18.4671   16.3329  -28.2425 C   0  0  0  0  0  0  0  0  0  0  0  0
  -19.1306   15.7875  -29.4051 C   0  0  0  0  0  0  0  0  0  0  0  0
  -17.1077   14.3591  -28.4527 C   0  0  0  0  0  0  0  0  0  0  0  0
  -17.3178   16.7313  -25.7387 C   0  0  0  0  0  0  0  0  0  0  0  0
  -18.8323   18.0274  -23.8652 C   0  0  0  0  0  0  0  0  0  0  0  0
  -23.3142   15.5312  -28.8979 C   0  0  0  0  0  0  0  0  0  0  0  0
  -19.7669   16.4586  -32.9626 C   0  0  0  0  0  0  0  0  0  0  0  0
  -20.4886   17.8435  -29.2175 N   0  0  0  0  0  0  0  0  0  0  0  0
  -21.4535   16.0600  -30.3132 C   0  0  0  0  0  0  0  0  0  0  0  0
  -21.1812   15.3018  -31.3603 O   0  0  0  0  0  0  0  0  0  0  0  0
  -15.0582   15.9175  -26.8483 C   0  0  0  0  0  0  0  0  0  0  0  0
  -17.4975   17.5960  -23.5626 C   0  0  0  0  0  0  0  0  0  0  0  0
  -18.2853   14.1154  -33.3079 C   0  0  0  0  0  0  0  0  0  0  0  0
  -16.5586   15.3289  -35.9342 N   0  0  0  0  0  0  0  0  0  0  0  0
  -16.1330   13.6560  -27.3752 C   0  0  0  0  0  0  0  0  0  0  0  0
  -19.4136   14.1184  -32.4190 C   0  0  0  0  0  0  0  0  0  0  0  0
  1  3  2  0
  1 16  1  0
  2 13  1  0
  2 21  1  0
  2 24  1  0
  3 11  1  0
  3 19  1  0
  4 21  1  0
  5 10  1  0
  5 16  1  0
  5 18  1  0
  6 26  1  0
  6 30  1  0
  7  9  1  0
  7 14  1  0
  7 28  2  0
  8 19  1  0
  8 27  2  0
  9 22  2  0
 10 19  1  0
 10 26  1  0
 11 20  2  0
 12 17  1  0
 12 23  1  0
 12 24  1  0
 13 23  1  0
 14 29  1  0
 15 22  1  0
 15 25  1  0
 15 31  2  0
 16 17  1  0
 18 30  1  0
 20 27  1  0
 24 25  1  0
 28 31  1  0
M  END
$$$$
