
     RDKit          3D

 31 36  0  0  0  0  0  0  0  0999 V2000
  -21.6372   15.7496  -30.7350 C   0  0  0  0  0  0  0  0  0  0  0  0
  -21.4745   17.5274  -29.1153 C   0  0  0  0  0  0  0  0  0  0  0  0
  -19.5890   15.7344  -29.2017 C   0  0  0  0  0  0  0  0  0  0  0  0
  -16.7171   17.8082  -25.8155 C   0  0  0  0  0  0  0  0  0  0  0  0
  -21.8252   16.2288  -26.9443 C   0  0  0  0  0  0  0  0  0  0  0  0
  -15.7252   17.3648  -26.9932 C   0  0  0  0  0  0  0  0  0  0  0  0
  -14.2905   17.3417  -27.6611 C   0  0  0  0  0  0  0  0  0  0  0  0
  -20.0805   17.1696  -28.4934 C   0  0  0  0  0  0  0  0  0  0  0  0
  -18.8692   16.6628  -32.3997 O   0  0  0  0  0  0  0  0  0  0  0  0
  -22.4559   18.2402  -28.1497 C   0  0  0  0  0  0  0  0  0  0  0  0
  -22.6508   15.5621  -28.0453 C   0  0  0  0  0  0  0  0  0  0  0  0
  -17.1365   14.3839  -28.7137 C   0  0  0  0  0  0  0  0  0  0  0  0
  -19.8167   14.4805  -32.5589 C   0  0  0  0  0  0  0  0  0  0  0  0
  -18.0719   17.3288  -26.2884 C   0  0  0  0  0  0  0  0  0  0  0  0
  -13.6066   16.1717  -28.3799 C   0  0  0  0  0  0  0  0  0  0  0  0
  -24.0743   16.2858  -27.7998 C   0  0  0  0  0  0  0  0  0  0  0  0
  -14.8424   14.1397  -28.1548 C   0  0  0  0  0  0  0  0  0  0  0  0
  -16.3635   16.0889  -27.2883 C   0  0  0  0  0  0  0  0  0  0  0  0
  -22.1779   16.1141  -29.4108 C   0  0  0  0  0  0  0  0  0  0  0  0
  -15.8943   15.1136  -28.2514 C   0  0  0  0  0  0  0  0  0  0  0  0
  -17.8627   16.1873  -27.2623 C   0  0  0  0  0  0  0  0  0  0  0  0
  -22.0892   17.6860  -26.7296 C   0  0  0  0  0  0  0  0  0  0  0  0
  -19.4895   15.6921  -31.8952 C   0  0  0  0  0  0  0  0  0  0  0  0
  -20.1348   15.8390  -30.6455 C   0  0  0  0  0  0  0  0  0  0  0  0
  -14.4752   13.9537  -26.6139 C   0  0  0  0  0  0  0  0  0  0  0  0
  -18.4326   15.0999  -28.3232 C   0  0  0  0  0  0  0  0  0  0  0  0
  -20.9105   15.6117  -26.2549 F   0  0  0  0  0  0  0  0  0  0  0  0
  -14.6662   15.2355  -28.9444 C   0  0  0  0  0  0  0  0  0  0  0  0
  -23.9305   17.7443  -28.3190 C   0  0  0  0  0  0  0  0  0  0  0  0
  -22.2909   19.7215  -28.3367 C   0  0  0  0  0  0  0  0  0  0  0  0
  -21.1782   18.3524  -30.3629 C   0  0  0  0  0  0  0  0  0  0  0  0
  1 19  1  0
  1 24  1  0
  2  8  1  0
  2 10  1  0
  2 19  1  0
  2 31  1  0
  3  8  1  0
  3 24  1  0
  3 26  1  0
  4  6  1  0
  4 14  1  0
  5 11  1  0
  5 22  1  0
  5 27  1  0
  6  7  1  0
  6 18  1  0
  7 15  1  0
  9 23  2  0
 10 22  1  0
 10 29  1  0
 10 30  1  0
 11 16  1  0
 11 19  1  0
 12 20  1  0
 12 26  1  0
 13 23  1  0
 14 21  1  0
 15 28  1  0
 16 29  1  0
 17 25  1  0
 17 28  1  0
 18 20  1  0
 18 21  1  0
 20 28  1  0
 21 26  1  0
 23 24  1  0
M  END
$$$$
