
     RDKit          3D

 19 21  0  0  0  0  0  0  0  0999 V2000
  -17.8520   15.9798  -28.8931 C   0  0  0  0  0  0  0  0  0  0  0  0
  -15.4487   17.6209  -26.0644 C   0  0  0  0  0  0  0  0  0  0  0  0
  -19.7232   15.7646  -30.4572 C   0  0  0  0  0  0  0  0  0  0  0  0
  -17.5376   14.8289  -29.8942 C   0  0  0  0  0  0  0  0  0  0  0  0
  -19.5085   15.7745  -28.9124 C   0  0  0  0  0  0  0  0  0  0  0  0
  -23.7826   13.8364  -29.4088 C   0  0  0  0  0  0  0  0  0  0  0  0
  -23.9184   12.5810  -30.4459 C   0  0  0  0  0  0  0  0  0  0  0  0
  -17.9665   17.4153  -25.8259 C   0  0  0  0  0  0  0  0  0  0  0  0
  -18.6088   14.9046  -30.9590 C   0  0  0  0  0  0  0  0  0  0  0  0
  -19.7698   17.2103  -27.9056 C   0  0  0  0  0  0  0  0  0  0  0  0
  -18.0184   17.3952  -24.2842 C   0  0  0  0  0  0  0  0  0  0  0  0
  -15.4705   15.2003  -26.3414 C   0  0  0  0  0  0  0  0  0  0  0  0
  -17.1173   15.9341  -27.5656 C   0  0  0  0  0  0  0  0  0  0  0  0
  -23.2364   14.8797  -30.2003 C   0  0  0  0  0  0  0  0  0  0  0  0
  -16.0873   14.8067  -27.6293 C   0  0  0  0  0  0  0  0  0  0  0  0
  -19.3086   16.9383  -26.4569 C   0  0  0  0  0  0  0  0  0  0  0  0
  -22.1120   15.7008  -30.5180 C   0  0  0  0  0  0  0  0  0  0  0  0
  -16.6369   16.4713  -26.1512 C   0  0  0  0  0  0  0  0  0  0  0  0
  -20.8821   15.4404  -31.3367 C   0  0  0  0  0  0  0  0  0  0  0  0
  1  4  1  0
  1  5  1  0
  1 13  1  0
  2 18  1  0
  3  5  1  0
  3  9  1  0
  3 19  1  0
  4  9  1  0
  5 10  1  0
  6  7  1  0
  6 14  1  0
  8 11  1  0
  8 16  1  0
  8 18  1  0
 10 16  1  0
 12 15  1  0
 12 18  1  0
 13 15  1  0
 13 18  1  0
 14 17  1  0
 17 19  1  0
M  END
$$$$
