
     RDKit          3D

 29 33  0  0  0  0  0  0  0  0999 V2000
  -16.1892   16.4419  -25.8128 C   0  0  0  0  0  0  0  0  0  0  0  0
  -23.0049   15.4698  -28.5085 C   0  0  0  0  0  0  0  0  0  0  0  0
  -21.9932   15.9601  -30.6237 O   0  0  0  0  0  0  0  0  0  0  0  0
  -19.1466   15.2484  -28.8438 O   0  0  0  0  0  0  0  0  0  0  0  0
  -20.4430   17.0076  -29.2678 C   0  0  0  0  0  0  0  0  0  0  0  0
  -21.6599   16.0745  -29.3015 C   0  0  0  0  0  0  0  0  0  0  0  0
  -19.0029   18.6269  -30.2334 C   0  0  0  0  0  0  0  0  0  0  0  0
  -20.5639   20.2455  -30.1154 O   0  0  0  0  0  0  0  0  0  0  0  0
  -23.4711   14.3585  -29.0080 O   0  0  0  0  0  0  0  0  0  0  0  0
  -14.5877   16.0448  -27.7665 C   0  0  0  0  0  0  0  0  0  0  0  0
  -17.9937   16.8514  -29.3146 N   0  0  0  0  0  0  0  0  0  0  0  0
  -15.5405   15.3952  -26.7081 C   0  0  0  0  0  0  0  0  0  0  0  0
  -25.2175   16.2207  -27.5805 C   0  0  0  0  0  0  0  0  0  0  0  0
  -20.3162   18.0960  -30.1756 C   0  0  0  0  0  0  0  0  0  0  0  0
  -21.2890   19.1253  -29.9690 C   0  0  0  0  0  0  0  0  0  0  0  0
  -23.9682   16.5362  -28.0724 C   0  0  0  0  0  0  0  0  0  0  0  0
  -21.2715   15.8144  -26.7519 C   0  0  0  0  0  0  0  0  0  0  0  0
  -19.2025   19.9938  -30.4086 C   0  0  0  0  0  0  0  0  0  0  0  0
  -23.6265   17.8500  -28.1386 C   0  0  0  0  0  0  0  0  0  0  0  0
  -25.7269   18.5445  -27.4235 C   0  0  0  0  0  0  0  0  0  0  0  0
  -17.5824   18.0355  -30.1435 C   0  0  0  0  0  0  0  0  0  0  0  0
  -19.1878   16.2525  -29.1184 C   0  0  0  0  0  0  0  0  0  0  0  0
  -16.9051   16.1764  -28.6414 C   0  0  0  0  0  0  0  0  0  0  0  0
  -26.0961   17.2118  -27.2661 C   0  0  0  0  0  0  0  0  0  0  0  0
  -15.5319   16.7139  -28.9494 C   0  0  0  0  0  0  0  0  0  0  0  0
  -21.7725   15.5617  -28.0703 C   0  0  0  0  0  0  0  0  0  0  0  0
  -16.8522   15.0654  -27.5603 C   0  0  0  0  0  0  0  0  0  0  0  0
  -24.4614   18.8530  -27.8372 C   0  0  0  0  0  0  0  0  0  0  0  0
  -15.9550   17.7392  -30.1271 C   0  0  0  0  0  0  0  0  0  0  0  0
  1 12  1  0
  2  9  1  0
  2 16  1  0
  2 26  1  0
  3  6  1  0
  4 22  2  0
  5  6  1  0
  5 14  1  0
  5 22  1  0
  6 26  1  0
  7 14  1  0
  7 18  1  0
  7 21  1  0
  8 15  1  0
  8 18  1  0
 10 12  1  0
 10 25  1  0
 11 21  1  0
 11 22  1  0
 11 23  1  0
 12 27  1  0
 13 16  2  0
 13 24  1  0
 14 15  1  0
 16 19  1  0
 17 26  1  0
 19 28  2  0
 20 24  2  0
 20 28  1  0
 21 29  1  0
 23 25  2  0
 23 27  1  0
 25 29  1  0
M  END
$$$$
