
     RDKit          3D

 31 33  0  0  0  0  0  0  0  0999 V2000
  -20.9852   17.9883  -25.4847 C   0  0  0  0  0  0  0  0  0  0  0  0
  -19.4392   15.6140  -29.6015 N   0  0  0  0  0  0  0  0  0  0  0  0
  -13.5554   17.4926  -29.5188 C   0  0  0  0  0  0  0  0  0  0  0  0
  -13.5341   15.3186  -28.1672 C   0  0  0  0  0  0  0  0  0  0  0  0
  -16.2751   15.7570  -28.2921 C   0  0  0  0  0  0  0  0  0  0  0  0
  -19.2048   16.5731  -26.1340 N   0  0  0  0  0  0  0  0  0  0  0  0
  -20.9431   17.7636  -22.6281 C   0  0  0  0  0  0  0  0  0  0  0  0
  -15.3872   16.5746  -32.0616 C   0  0  0  0  0  0  0  0  0  0  0  0
  -21.3909   19.0620  -24.6704 O   0  0  0  0  0  0  0  0  0  0  0  0
  -17.9596   16.9107  -32.1756 C   0  0  0  0  0  0  0  0  0  0  0  0
  -19.2899   16.4411  -32.7753 C   0  0  0  0  0  0  0  0  0  0  0  0
  -15.0578   15.0250  -27.9117 C   0  0  0  0  0  0  0  0  0  0  0  0
  -16.3769   13.3910  -27.0954 N   0  0  0  0  0  0  0  0  0  0  0  0
  -15.1849   13.8348  -27.1410 C   0  0  0  0  0  0  0  0  0  0  0  0
  -19.7957   15.1393  -32.0325 C   0  0  0  0  0  0  0  0  0  0  0  0
  -21.6015   20.1967  -22.4590 C   0  0  0  0  0  0  0  0  0  0  0  0
  -19.7675   16.2512  -27.2776 C   0  0  0  0  0  0  0  0  0  0  0  0
  -17.8859   17.6937  -31.1198 O   0  0  0  0  0  0  0  0  0  0  0  0
  -13.3367   15.9825  -29.5184 C   0  0  0  0  0  0  0  0  0  0  0  0
  -17.4188   14.2160  -27.4185 C   0  0  0  0  0  0  0  0  0  0  0  0
  -21.6809   17.6071  -26.6620 C   0  0  0  0  0  0  0  0  0  0  0  0
  -21.0492   16.7158  -27.5567 C   0  0  0  0  0  0  0  0  0  0  0  0
  -16.7296   16.4795  -32.8638 C   0  0  0  0  0  0  0  0  0  0  0  0
  -18.9617   15.0982  -30.7827 N   0  0  0  0  0  0  0  0  0  0  0  0
  -21.0251   19.1425  -23.3129 C   0  0  0  0  0  0  0  0  0  0  0  0
  -17.6182   15.2084  -28.0087 C   0  0  0  0  0  0  0  0  0  0  0  0
  -19.0075   15.5450  -28.3281 C   0  0  0  0  0  0  0  0  0  0  0  0
  -12.3313   18.0908  -28.7607 C   0  0  0  0  0  0  0  0  0  0  0  0
  -13.6329   17.9866  -30.9068 N   0  0  0  0  0  0  0  0  0  0  0  0
  -19.7633   17.3519  -25.2226 C   0  0  0  0  0  0  0  0  0  0  0  0
  -14.9869   18.0108  -31.6068 C   0  0  0  0  0  0  0  0  0  0  0  0
  1  9  1  0
  1 21  1  0
  1 30  2  0
  2 24  2  3
  2 27  1  0
  3 19  1  0
  3 28  1  0
  3 29  1  0
  4 12  1  0
  4 19  1  0
  5 12  2  0
  5 26  1  0
  6 17  2  0
  6 30  1  0
  7 25  1  0
  8 23  1  0
  8 31  1  0
  9 25  1  0
 10 11  1  0
 10 18  1  0
 10 23  1  0
 11 15  1  0
 12 14  1  0
 13 14  1  0
 13 20  1  0
 15 24  1  0
 16 25  1  0
 17 22  1  0
 17 27  1  0
 20 26  2  0
 21 22  2  0
 26 27  1  0
 29 31  1  0
M  END
$$$$
