
     RDKit          3D

 32 34  0  0  0  0  0  0  0  0999 V2000
  -18.3701   16.4945  -31.6350 C   0  0  0  0  0  0  0  0  0  0  0  0
  -17.5436   15.4578  -30.8609 C   0  0  0  0  0  0  0  0  0  0  0  0
  -22.7306   14.9861  -28.7243 O   0  0  0  0  0  0  0  0  0  0  0  0
  -21.1682   19.2757  -27.4697 C   0  0  0  0  0  0  0  0  0  0  0  0
  -16.5028   13.7563  -27.3438 C   0  0  0  0  0  0  0  0  0  0  0  0
  -19.8505   16.2511  -31.3135 C   0  0  0  0  0  0  0  0  0  0  0  0
  -18.9566   18.1792  -27.6632 C   0  0  0  0  0  0  0  0  0  0  0  0
  -21.9625   18.0563  -27.9104 C   0  0  0  0  0  0  0  0  0  0  0  0
  -17.1521   16.4036  -27.0767 C   0  0  0  0  0  0  0  0  0  0  0  0
  -18.0782   17.9671  -31.7663 C   0  0  0  0  0  0  0  0  0  0  0  0
  -20.4147   15.8885  -32.2249 O   0  0  0  0  0  0  0  0  0  0  0  0
  -16.0676   15.8243  -30.5070 C   0  0  0  0  0  0  0  0  0  0  0  0
  -18.3465   16.9381  -28.0344 C   0  0  0  0  0  0  0  0  0  0  0  0
  -17.2624   17.0847  -25.6969 C   0  0  0  0  0  0  0  0  0  0  0  0
  -20.3599   16.8166  -30.0760 C   0  0  0  0  0  0  0  0  0  0  0  0
  -15.7881   16.2714  -27.8419 C   0  0  0  0  0  0  0  0  0  0  0  0
  -14.7500   15.1871  -28.1507 C   0  0  0  0  0  0  0  0  0  0  0  0
  -15.8453   15.3239  -29.0473 C   0  0  0  0  0  0  0  0  0  0  0  0
  -21.5322   16.5926  -27.4108 C   0  0  0  0  0  0  0  0  0  0  0  0
  -19.3462   18.7693  -32.1490 C   0  0  0  0  0  0  0  0  0  0  0  0
  -19.5719   17.7020  -28.9834 C   0  0  0  0  0  0  0  0  0  0  0  0
  -20.4436   15.7104  -26.7530 C   0  0  0  0  0  0  0  0  0  0  0  0
  -22.7180   15.7254  -27.7031 C   0  0  0  0  0  0  0  0  0  0  0  0
  -19.9797   18.6936  -26.6013 C   0  0  0  0  0  0  0  0  0  0  0  0
  -15.5600   16.3450  -31.9433 C   0  0  0  0  0  0  0  0  0  0  0  0
  -16.9231   18.7762  -31.2900 C   0  0  0  0  0  0  0  0  0  0  0  0
  -18.1472   14.6964  -29.6477 C   0  0  0  0  0  0  0  0  0  0  0  0
  -15.1372   14.1688  -27.1713 C   0  0  0  0  0  0  0  0  0  0  0  0
  -15.1336   17.4929  -27.8671 O   0  0  0  0  0  0  0  0  0  0  0  0
  -16.9637   14.2786  -28.7250 C   0  0  0  0  0  0  0  0  0  0  0  0
  -18.0414   19.4822  -27.8918 C   0  0  0  0  0  0  0  0  0  0  0  0
  -24.0043   16.5223  -27.6716 C   0  0  0  0  0  0  0  0  0  0  0  0
  1  2  1  0
  1  6  1  0
  1 10  1  0
  2 12  1  0
  2 27  1  0
  3 23  1  0
  4  8  1  0
  4 24  1  0
  5 28  1  0
  5 30  1  0
  6 11  2  0
  6 15  1  0
  7 13  1  0
  7 21  1  0
  7 24  1  0
  7 31  1  0
  8 19  2  3
  9 13  1  0
  9 14  1  0
  9 16  1  0
 10 20  1  0
 10 26  1  0
 12 18  1  0
 12 25  1  0
 15 21  1  0
 16 17  1  0
 16 29  1  0
 17 18  1  0
 17 28  1  0
 18 30  1  0
 19 22  1  0
 19 23  1  0
 23 32  1  0
 27 30  1  0
M  END
$$$$
