
     RDKit          3D

 21 22  0  0  0  0  0  0  0  0999 V2000
  -14.1899   14.1674  -27.1458 C   0  0  0  0  0  0  0  0  0  0  0  0
  -18.2431   17.4055  -31.2462 C   0  0  0  0  0  0  0  0  0  0  0  0
  -18.4452   18.4111  -30.2471 O   0  0  0  0  0  0  0  0  0  0  0  0
  -19.0581   15.7663  -27.0888 C   0  0  0  0  0  0  0  0  0  0  0  0
  -22.4869   15.8847  -28.0793 C   0  0  0  0  0  0  0  0  0  0  0  0
  -16.1924   19.8261  -27.4787 C   0  0  0  0  0  0  0  0  0  0  0  0
  -14.7885   16.8230  -26.5953 N   0  0  0  0  0  0  0  0  0  0  0  0
  -17.1402   16.6890  -26.5726 C   0  0  0  0  0  0  0  0  0  0  0  0
  -16.8392   15.4611  -27.0333 C   0  0  0  0  0  0  0  0  0  0  0  0
  -20.3392   15.7337  -27.1066 C   0  0  0  0  0  0  0  0  0  0  0  0
  -18.4613   16.8655  -26.4967 O   0  0  0  0  0  0  0  0  0  0  0  0
  -16.3331   18.9272  -26.4207 O   0  0  0  0  0  0  0  0  0  0  0  0
  -18.1134   14.9072  -27.5062 N   0  0  0  0  0  0  0  0  0  0  0  0
  -20.7998   16.3143  -29.9087 C   0  0  0  0  0  0  0  0  0  0  0  0
  -20.6782   16.8500  -31.3419 C   0  0  0  0  0  0  0  0  0  0  0  0
  -15.9712   17.6078  -26.3161 C   0  0  0  0  0  0  0  0  0  0  0  0
  -23.1428   16.3671  -30.3064 C   0  0  0  0  0  0  0  0  0  0  0  0
  -15.2661   15.4065  -26.7368 C   0  0  0  0  0  0  0  0  0  0  0  0
  -21.5984   15.8071  -27.0448 C   0  0  0  0  0  0  0  0  0  0  0  0
  -19.4905   17.1577  -32.0337 C   0  0  0  0  0  0  0  0  0  0  0  0
  -22.0487   16.0975  -29.3683 N   0  0  0  0  0  0  0  0  0  0  0  0
  1 18  1  0
  2  3  1  0
  2 20  1  0
  4 10  2  0
  4 11  1  0
  4 13  1  0
  5 19  1  0
  5 21  1  0
  6 12  1  0
  7 16  1  0
  7 18  1  0
  8  9  2  0
  8 11  1  0
  8 16  1  0
  9 13  1  0
  9 18  1  0
 10 19  2  0
 12 16  1  0
 14 15  2  3
 14 21  1  0
 15 20  1  0
 17 21  1  0
M  END
$$$$
