
     RDKit          3D

 16 17  0  0  0  0  0  0  0  0999 V2000
  -17.4503   15.0239  -28.2899 C   0  0  0  0  0  0  0  0  0  0  0  0
  -22.5013   16.9526  -27.5758 O   0  0  0  0  0  0  0  0  0  0  0  0
  -21.7374   16.4269  -28.5894 C   0  0  0  0  0  0  0  0  0  0  0  0
  -20.1827   15.8294  -30.7477 C   0  0  0  0  0  0  0  0  0  0  0  0
  -18.3111   15.3366  -29.3954 C   0  0  0  0  0  0  0  0  0  0  0  0
  -16.0587   15.6424  -26.3748 C   0  0  0  0  0  0  0  0  0  0  0  0
  -20.4083   16.1869  -28.4001 C   0  0  0  0  0  0  0  0  0  0  0  0
  -16.6517   13.8955  -28.4197 C   0  0  0  0  0  0  0  0  0  0  0  0
  -17.1846   15.8685  -27.1937 C   0  0  0  0  0  0  0  0  0  0  0  0
  -17.5602   15.4963  -30.5905 O   0  0  0  0  0  0  0  0  0  0  0  0
  -15.6592   13.5350  -27.5112 C   0  0  0  0  0  0  0  0  0  0  0  0
  -22.3192   16.2207  -29.8143 C   0  0  0  0  0  0  0  0  0  0  0  0
  -21.5391   15.9411  -30.8583 C   0  0  0  0  0  0  0  0  0  0  0  0
  -15.2514   14.4462  -26.5303 C   0  0  0  0  0  0  0  0  0  0  0  0
  -23.6730   16.3471  -29.9720 O   0  0  0  0  0  0  0  0  0  0  0  0
  -19.6249   15.8429  -29.4751 C   0  0  0  0  0  0  0  0  0  0  0  0
  1  5  1  0
  1  8  1  0
  1  9  2  0
  2  3  1  0
  3  7  1  0
  3 12  2  0
  4 13  2  0
  4 16  1  0
  5 10  1  0
  5 16  1  0
  6  9  1  0
  6 14  2  0
  7 16  2  0
  8 11  2  0
 11 14  1  0
 12 13  1  0
 12 15  1  0
M  END
$$$$
