
     RDKit          3D

 10 10  0  0  0  0  0  0  0  0999 V2000
   13.9588   35.7961   13.2103 N   0  0  0  0  0  0  0  0  0  0  0  0
   13.0035   35.4718   15.3593 C   0  0  0  0  0  0  0  0  0  0  0  0
   12.0616   34.4506   15.9248 C   0  0  0  0  0  0  0  0  0  0  0  0
   10.1069   33.8303   17.2078 N   0  0  0  0  0  0  0  0  0  0  0  0
   11.3222   32.1305   16.0292 C   0  0  0  0  0  0  0  0  0  0  0  0
   10.2362   32.5069   16.8237 C   0  0  0  0  0  0  0  0  0  0  0  0
   12.2056   33.0927   15.6127 C   0  0  0  0  0  0  0  0  0  0  0  0
   11.0094   34.7790   16.7708 C   0  0  0  0  0  0  0  0  0  0  0  0
   12.8844   36.7302   15.3948 O   0  0  0  0  0  0  0  0  0  0  0  0
   14.0550   34.9574   14.4420 C   0  0  0  0  0  0  0  0  0  0  0  0
  1 10  1  0
  2  3  1  0
  2  9  2  0
  2 10  1  0
  3  7  1  0
  3  8  1  0
  4  6  1  0
  4  8  2  0
  5  6  1  0
  5  7  2  0
M  END
$$$$
