
     RDKit          3D

 28 33  0  0  0  0  0  0  0  0999 V2000
   12.7753   36.9297   15.4981 C   0  0  0  0  0  0  0  0  0  0  0  0
   15.4608   35.3924   10.8342 C   0  0  0  0  0  0  0  0  0  0  0  0
   15.0927   33.9622   12.6403 C   0  0  0  0  0  0  0  0  0  0  0  0
   10.7759   31.8274   16.1931 N   0  0  0  0  0  0  0  0  0  0  0  0
   13.3984   31.1639   13.7771 C   0  0  0  0  0  0  0  0  0  0  0  0
   14.8753   35.1795   12.0539 N   0  0  0  0  0  0  0  0  0  0  0  0
   15.6048   31.8718   14.3670 C   0  0  0  0  0  0  0  0  0  0  0  0
   11.9018   32.0132   15.4652 C   0  0  0  0  0  0  0  0  0  0  0  0
   11.2375   34.9552   16.7433 C   0  0  0  0  0  0  0  0  0  0  0  0
   14.2002   32.3649   14.1759 C   0  0  0  0  0  0  0  0  0  0  0  0
   12.1657   34.5886   15.7474 C   0  0  0  0  0  0  0  0  0  0  0  0
    9.5695   33.2329   17.5572 O   0  0  0  0  0  0  0  0  0  0  0  0
   14.1126   35.9405   12.9212 N   0  0  0  0  0  0  0  0  0  0  0  0
   11.1918   36.2718   17.1819 C   0  0  0  0  0  0  0  0  0  0  0  0
   11.9754   37.2728   16.5887 C   0  0  0  0  0  0  0  0  0  0  0  0
   15.7950   30.6262   13.5584 C   0  0  0  0  0  0  0  0  0  0  0  0
   10.4293   33.9570   17.2120 N   0  0  0  0  0  0  0  0  0  0  0  0
   16.6835   33.3334   11.0531 C   0  0  0  0  0  0  0  0  0  0  0  0
   14.2425   33.8499   13.7342 C   0  0  0  0  0  0  0  0  0  0  0  0
   13.7368   35.1592   13.9429 C   0  0  0  0  0  0  0  0  0  0  0  0
   13.3814   37.9414   14.8092 O   0  0  0  0  0  0  0  0  0  0  0  0
   12.9122   35.5955   15.0617 C   0  0  0  0  0  0  0  0  0  0  0  0
   12.3299   33.2576   15.4430 C   0  0  0  0  0  0  0  0  0  0  0  0
   10.2631   32.7552   16.9231 C   0  0  0  0  0  0  0  0  0  0  0  0
   16.3795   34.4665   10.3006 C   0  0  0  0  0  0  0  0  0  0  0  0
   12.2871   30.8407   14.6718 C   0  0  0  0  0  0  0  0  0  0  0  0
   16.2961   31.8394   13.0365 C   0  0  0  0  0  0  0  0  0  0  0  0
   16.0070   33.0632   12.2136 C   0  0  0  0  0  0  0  0  0  0  0  0
  1 15  2  0
  1 21  1  0
  1 22  1  0
  2  6  1  0
  2 25  2  0
  3  6  1  0
  3 19  1  0
  3 28  2  0
  4  8  1  0
  4 24  1  0
  5 10  1  0
  5 26  1  0
  6 13  1  0
  7 10  1  0
  7 16  1  0
  8 23  2  0
  8 26  1  0
  9 11  1  0
  9 14  1  0
  9 17  2  0
 10 19  1  0
 11 22  2  0
 11 23  1  0
 12 24  2  0
 13 20  1  0
 14 15  1  0
 16 27  1  0
 17 24  1  0
 18 25  1  0
 18 28  1  0
 19 20  2  0
 20 22  1  0
 27 28  1  0
M  END
$$$$
