
     RDKit          3D

 15 17  0  0  0  0  0  0  0  0999 V2000
   13.4742   33.3579   14.0888 N   0  0  0  0  0  0  0  0  0  0  0  0
   11.8339   31.7530   15.2509 C   0  0  0  0  0  0  0  0  0  0  0  0
   14.5770   35.4637   13.5842 N   0  0  0  0  0  0  0  0  0  0  0  0
   14.9047   35.1391   11.1227 C   0  0  0  0  0  0  0  0  0  0  0  0
   11.5374   35.4139   17.0908 N   0  0  0  0  0  0  0  0  0  0  0  0
   10.5866   33.0840   16.9497 N   0  0  0  0  0  0  0  0  0  0  0  0
   10.7915   31.8639   16.2587 C   0  0  0  0  0  0  0  0  0  0  0  0
   12.5249   36.0374   16.3513 C   0  0  0  0  0  0  0  0  0  0  0  0
   13.0346   35.1657   15.4034 N   0  0  0  0  0  0  0  0  0  0  0  0
   13.7570   34.6823   14.3392 C   0  0  0  0  0  0  0  0  0  0  0  0
   12.2864   34.0329   15.6893 C   0  0  0  0  0  0  0  0  0  0  0  0
   15.3981   35.2249   12.5059 C   0  0  0  0  0  0  0  0  0  0  0  0
   16.8721   35.4088   12.6444 C   0  0  0  0  0  0  0  0  0  0  0  0
   12.5489   32.9466   14.9628 C   0  0  0  0  0  0  0  0  0  0  0  0
   11.3797   34.1748   16.6530 C   0  0  0  0  0  0  0  0  0  0  0  0
  1 10  1  0
  1 14  1  0
  2  7  2  0
  2 14  1  0
  3 10  2  3
  3 12  1  0
  4 12  1  0
  5  8  1  0
  5 15  1  0
  6  7  1  0
  6 15  2  0
  8  9  1  0
  9 10  1  0
  9 11  1  0
 11 14  2  0
 11 15  1  0
 12 13  1  0
M  END
$$$$
