
     RDKit          3D

 16 17  0  0  0  0  0  0  0  0999 V2000
  -18.4640   -6.6372    3.0874 C   0  0  0  0  0  0  0  0  0  0  0  0
  -11.0067   -6.5841    5.2680 N   0  0  0  0  0  0  0  0  0  0  0  0
  -11.8742   -7.0674    3.0988 C   0  0  0  0  0  0  0  0  0  0  0  0
  -10.7813   -6.9366    4.0117 C   0  0  0  0  0  0  0  0  0  0  0  0
  -20.5115   -7.8967    4.5161 C   0  0  0  0  0  0  0  0  0  0  0  0
  -20.3459   -8.1064    3.1601 C   0  0  0  0  0  0  0  0  0  0  0  0
  -19.6622   -7.0622    5.1822 C   0  0  0  0  0  0  0  0  0  0  0  0
  -15.5428   -5.8860    4.6756 C   0  0  0  0  0  0  0  0  0  0  0  0
  -13.2287   -6.3599    4.8246 C   0  0  0  0  0  0  0  0  0  0  0  0
  -12.1763   -6.1366    5.6685 N   0  0  0  0  0  0  0  0  0  0  0  0
  -16.6624   -5.3122    5.0271 C   0  0  0  0  0  0  0  0  0  0  0  0
  -13.0619   -6.8272    3.6128 N   0  0  0  0  0  0  0  0  0  0  0  0
  -18.6651   -6.4193    4.4597 C   0  0  0  0  0  0  0  0  0  0  0  0
  -19.3511   -7.4548    2.4268 C   0  0  0  0  0  0  0  0  0  0  0  0
  -14.4473   -6.0460    5.1892 C   0  0  0  0  0  0  0  0  0  0  0  0
  -17.9068   -5.4906    5.1927 C   0  0  0  0  0  0  0  0  0  0  0  0
  1 13  1  0
  1 14  2  0
  2  4  1  0
  2 10  1  0
  3  4  2  0
  3 12  1  0
  5  6  1  0
  5  7  2  0
  6 14  1  0
  7 13  1  0
  8 11  1  0
  8 15  2  3
  9 10  1  0
  9 12  2  0
  9 15  1  0
 11 16  1  0
 13 16  1  0
M  END
$$$$
