
     RDKit          3D

 28 29  0  0  0  0  0  0  0  0999 V2000
  -10.8950   -5.9967    1.8423 C   0  0  0  0  0  0  0  0  0  0  0  0
  -18.8026   -6.2153    5.6615 C   0  0  0  0  0  0  0  0  0  0  0  0
  -11.9920   -2.8395   -0.7086 C   0  0  0  0  0  0  0  0  0  0  0  0
  -22.5753   -5.8265    4.8996 O   0  0  0  0  0  0  0  0  0  0  0  0
  -11.2369   -6.3155    3.3474 C   0  0  0  0  0  0  0  0  0  0  0  0
  -19.7255   -5.8265    6.7204 C   0  0  0  0  0  0  0  0  0  0  0  0
  -12.2554   -3.0129   -2.0267 O   0  0  0  0  0  0  0  0  0  0  0  0
  -11.4445   -1.0303   -2.7620 O   0  0  0  0  0  0  0  0  0  0  0  0
  -19.2146   -4.5612    4.0411 F   0  0  0  0  0  0  0  0  0  0  0  0
  -19.1612   -5.9371    4.2470 C   0  0  0  0  0  0  0  0  0  0  0  0
  -12.0438   -2.0142   -3.0600 C   0  0  0  0  0  0  0  0  0  0  0  0
  -20.9809   -6.6149    6.4585 C   0  0  0  0  0  0  0  0  0  0  0  0
  -12.6415   -2.1520   -4.2311 C   0  0  0  0  0  0  0  0  0  0  0  0
  -10.3167   -6.7691    4.1379 O   0  0  0  0  0  0  0  0  0  0  0  0
  -16.9246   -6.1195    4.3608 C   0  0  0  0  0  0  0  0  0  0  0  0
  -21.4667   -6.4308    5.0461 C   0  0  0  0  0  0  0  0  0  0  0  0
  -12.5799   -6.6183    3.7800 C   0  0  0  0  0  0  0  0  0  0  0  0
  -17.9774   -6.4357    3.5457 N   0  0  0  0  0  0  0  0  0  0  0  0
  -15.0024   -7.3519    5.9939 O   0  0  0  0  0  0  0  0  0  0  0  0
  -20.8350   -7.1905    2.6867 C   0  0  0  0  0  0  0  0  0  0  0  0
  -17.4135   -6.0017    5.7145 C   0  0  0  0  0  0  0  0  0  0  0  0
  -11.9118   -4.8918    1.4164 O   0  0  0  0  0  0  0  0  0  0  0  0
  -22.1933   -6.7749    2.2876 O   0  0  0  0  0  0  0  0  0  0  0  0
  -13.1640   -6.1168    5.0297 C   0  0  0  0  0  0  0  0  0  0  0  0
  -20.5098   -6.6012    3.9504 C   0  0  0  0  0  0  0  0  0  0  0  0
  -14.6430   -6.3861    5.2173 C   0  0  0  0  0  0  0  0  0  0  0  0
  -15.5069   -5.8590    4.1752 C   0  0  0  0  0  0  0  0  0  0  0  0
  -11.8270   -4.2066    0.1306 C   0  0  0  0  0  0  0  0  0  0  0  0
  1  5  1  0
  1 22  1  0
  2  6  1  0
  2 10  1  0
  2 21  1  0
  3  7  1  0
  3 28  1  0
  4 16  2  0
  5 14  1  0
  5 17  1  0
  6 12  1  0
  7 11  1  0
  8 11  2  0
  9 10  1  0
 10 18  1  0
 10 25  1  0
 11 13  1  0
 12 16  1  0
 15 18  1  0
 15 21  1  0
 15 27  1  0
 16 25  1  0
 17 24  2  3
 19 26  1  0
 20 23  1  0
 20 25  1  0
 22 28  1  0
 24 26  1  0
 26 27  1  0
M  END
$$$$
