
     RDKit          3D

 27 28  0  0  0  0  0  0  0  0999 V2000
  -19.6396   -6.0077    3.8352 C   0  0  0  0  0  0  0  0  0  0  0  0
  -21.6995   -5.5085    4.9645 C   0  0  0  0  0  0  0  0  0  0  0  0
  -24.1980   -4.8364    4.5816 C   0  0  0  0  0  0  0  0  0  0  0  0
  -21.0500   -6.2675    3.9050 C   0  0  0  0  0  0  0  0  0  0  0  0
  -16.9450   -6.2284    4.0058 C   0  0  0  0  0  0  0  0  0  0  0  0
   -9.9815   -7.9111    3.3415 N   0  0  0  0  0  0  0  0  0  0  0  0
  -24.4418   -4.6843    3.1516 C   0  0  0  0  0  0  0  0  0  0  0  0
   -9.5981   -7.2162    4.4311 C   0  0  0  0  0  0  0  0  0  0  0  0
  -11.1948   -1.2126   -2.2205 C   0  0  0  0  0  0  0  0  0  0  0  0
  -15.5733   -6.1439    4.1142 N   0  0  0  0  0  0  0  0  0  0  0  0
  -25.7976   -4.4865    2.8627 C   0  0  0  0  0  0  0  0  0  0  0  0
  -13.0027   -6.5251    4.2877 N   0  0  0  0  0  0  0  0  0  0  0  0
  -19.0321   -5.6750    5.0771 N   0  0  0  0  0  0  0  0  0  0  0  0
  -23.1492   -5.7496    5.0247 C   0  0  0  0  0  0  0  0  0  0  0  0
  -14.9797   -5.9448    5.2341 C   0  0  0  0  0  0  0  0  0  0  0  0
  -13.5662   -5.9814    5.3155 C   0  0  0  0  0  0  0  0  0  0  0  0
  -25.3264   -4.9520    5.2670 O   0  0  0  0  0  0  0  0  0  0  0  0
  -19.7217   -5.8387    6.3019 C   0  0  0  0  0  0  0  0  0  0  0  0
  -21.1297   -5.7180    6.2740 C   0  0  0  0  0  0  0  0  0  0  0  0
  -11.6356   -1.7437   -3.3807 O   0  0  0  0  0  0  0  0  0  0  0  0
  -26.0919   -3.8342    5.0986 C   0  0  0  0  0  0  0  0  0  0  0  0
  -10.6941   -6.6890    4.9258 N   0  0  0  0  0  0  0  0  0  0  0  0
  -26.1564   -3.4380    3.7394 C   0  0  0  0  0  0  0  0  0  0  0  0
  -17.6316   -5.6581    5.2045 C   0  0  0  0  0  0  0  0  0  0  0  0
  -11.7824   -2.0000   -1.0415 C   0  0  0  0  0  0  0  0  0  0  0  0
  -11.2768   -7.7409    3.1341 N   0  0  0  0  0  0  0  0  0  0  0  0
  -11.7355   -6.9311    4.1723 C   0  0  0  0  0  0  0  0  0  0  0  0
  1  4  1  0
  1 13  1  0
  2  4  1  0
  2 14  1  0
  2 19  1  0
  3  7  1  0
  3 14  1  0
  3 17  1  0
  5 10  1  0
  5 24  1  0
  6  8  1  0
  6 26  1  0
  7 11  1  0
  8 22  1  0
  9 20  1  0
  9 25  1  0
 10 15  2  3
 11 23  1  0
 12 16  1  0
 12 27  2  3
 13 18  1  0
 13 24  1  0
 15 16  1  0
 17 21  1  0
 18 19  2  0
 21 23  1  0
 22 27  1  0
 26 27  1  0
M  END
$$$$
