
     RDKit          3D

 27 30  0  0  0  0  0  0  0  0999 V2000
  -18.0200   -5.6248    4.8211 C   0  0  0  0  0  0  0  0  0  0  0  0
  -12.9042   -6.5648    3.7360 N   0  0  0  0  0  0  0  0  0  0  0  0
  -20.2162   -7.9360    1.2102 O   0  0  0  0  0  0  0  0  0  0  0  0
  -23.1692   -8.9303    2.9771 C   0  0  0  0  0  0  0  0  0  0  0  0
  -16.2654   -6.7280    4.0023 N   0  0  0  0  0  0  0  0  0  0  0  0
  -24.4898   -6.6486    0.6962 O   0  0  0  0  0  0  0  0  0  0  0  0
  -14.5288   -5.7123    5.4134 C   0  0  0  0  0  0  0  0  0  0  0  0
  -24.4404   -7.7282    1.4569 C   0  0  0  0  0  0  0  0  0  0  0  0
  -19.7405   -4.3189    5.7573 N   0  0  0  0  0  0  0  0  0  0  0  0
  -23.1021   -8.2008    1.6598 C   0  0  0  0  0  0  0  0  0  0  0  0
  -13.3053   -6.2121    4.9650 C   0  0  0  0  0  0  0  0  0  0  0  0
  -25.2696   -8.4277    2.2137 O   0  0  0  0  0  0  0  0  0  0  0  0
  -24.5276   -9.1186    3.2331 C   0  0  0  0  0  0  0  0  0  0  0  0
  -15.8139   -5.8710    4.9324 C   0  0  0  0  0  0  0  0  0  0  0  0
  -18.6043   -7.3386    3.2408 C   0  0  0  0  0  0  0  0  0  0  0  0
  -22.0363   -9.6106    3.7062 C   0  0  0  0  0  0  0  0  0  0  0  0
  -11.1442   -6.6019    5.0851 N   0  0  0  0  0  0  0  0  0  0  0  0
  -16.8640   -5.1681    5.4207 C   0  0  0  0  0  0  0  0  0  0  0  0
  -23.5625   -6.6665   -0.4123 C   0  0  0  0  0  0  0  0  0  0  0  0
  -20.3173   -5.9268    4.1996 N   0  0  0  0  0  0  0  0  0  0  0  0
  -12.1854   -6.2241    5.7901 N   0  0  0  0  0  0  0  0  0  0  0  0
  -19.9526   -6.9089    3.3038 C   0  0  0  0  0  0  0  0  0  0  0  0
  -19.3943   -5.2719    4.9485 C   0  0  0  0  0  0  0  0  0  0  0  0
  -20.8969   -7.4738    2.3523 C   0  0  0  0  0  0  0  0  0  0  0  0
  -11.5689   -6.7926    3.8070 N   0  0  0  0  0  0  0  0  0  0  0  0
  -17.6517   -6.6522    3.9412 C   0  0  0  0  0  0  0  0  0  0  0  0
  -22.2102   -6.9600    1.9257 C   0  0  0  0  0  0  0  0  0  0  0  0
  1 18  1  0
  1 23  1  0
  1 26  1  0
  2 11  2  0
  2 25  1  0
  3 24  1  0
  4 10  1  0
  4 13  1  0
  4 16  1  0
  5 14  1  0
  5 26  1  0
  6  8  1  0
  6 19  1  0
  7 11  1  0
  7 14  2  3
  8 10  1  0
  8 12  1  0
  9 23  2  0
 10 27  1  0
 11 21  1  0
 12 13  1  0
 14 18  1  0
 15 22  1  0
 15 26  2  0
 17 21  1  0
 17 25  1  0
 20 22  2  0
 20 23  1  0
 22 24  1  0
 24 27  1  0
M  END
$$$$
