
     RDKit          3D

 10  9  0  0  0  0  0  0  0  0999 V2000
  -18.2929   -4.7614    4.3625 O   0  0  0  0  0  0  0  0  0  0  0  0
  -12.3164   -6.7714    6.0094 O   0  0  0  0  0  0  0  0  0  0  0  0
  -11.6640   -6.9943    3.9047 O   0  0  0  0  0  0  0  0  0  0  0  0
  -18.5454   -7.1852    4.4463 C   0  0  0  0  0  0  0  0  0  0  0  0
  -13.8359   -6.2804    4.2945 C   0  0  0  0  0  0  0  0  0  0  0  0
  -16.1294   -6.5886    5.1605 C   0  0  0  0  0  0  0  0  0  0  0  0
  -18.0188   -5.9490    3.8455 C   0  0  0  0  0  0  0  0  0  0  0  0
  -16.5186   -6.0866    3.7915 O   0  0  0  0  0  0  0  0  0  0  0  0
  -14.7378   -5.9276    5.4281 C   0  0  0  0  0  0  0  0  0  0  0  0
  -12.4775   -6.5789    4.8152 C   0  0  0  0  0  0  0  0  0  0  0  0
  1  7  1  0
  2 10  2  0
  3 10  1  0
  4  7  1  0
  5  9  1  0
  5 10  1  0
  6  8  1  0
  6  9  1  0
  7  8  1  0
M  END
$$$$
