
     RDKit          3D

 28 29  0  0  0  0  0  0  0  0999 V2000
    5.7458   -1.1307    2.1246 C   0  0  0  0  0  0  0  0  0  0  0  0
    7.0909    1.8396    3.0533 C   0  0  0  0  0  0  0  0  0  0  0  0
    7.7643    2.8281    3.9992 C   0  0  0  0  0  0  0  0  0  0  0  0
    9.0982   -0.9108   -0.0271 O   0  0  0  0  0  0  0  0  0  0  0  0
    8.9158    2.1489    0.9736 O   0  0  0  0  0  0  0  0  0  0  0  0
    5.5941   -2.3217    2.8519 C   0  0  0  0  0  0  0  0  0  0  0  0
    3.4302   -4.0425    3.3634 Cl  0  0  0  0  0  0  0  0  0  0  0  0
    4.4202   -0.8156    1.4526 C   0  0  0  0  0  0  0  0  0  0  0  0
    3.7861    0.2468    0.6987 C   0  0  0  0  0  0  0  0  0  0  0  0
    1.3646    1.3119   -0.2245 C   0  0  0  0  0  0  0  0  0  0  0  0
    8.9224   -1.8237    1.0902 C   0  0  0  0  0  0  0  0  0  0  0  0
    7.9047    0.6444    2.5845 C   0  0  0  0  0  0  0  0  0  0  0  0
    0.0299    0.9220   -0.2422 O   0  0  0  0  0  0  0  0  0  0  0  0
    8.9337    3.2957    3.7801 O   0  0  0  0  0  0  0  0  0  0  0  0
    1.7350   -0.9954    0.6216 C   0  0  0  0  0  0  0  0  0  0  0  0
    2.7694    3.3745   -0.0666 N   0  0  0  0  0  0  0  0  0  0  0  0
    4.2788   -2.7567    2.6114 N   0  0  0  0  0  0  0  0  0  0  0  0
    2.3198   -2.0187    1.3324 C   0  0  0  0  0  0  0  0  0  0  0  0
    8.1213   -1.6912    2.3806 C   0  0  0  0  0  0  0  0  0  0  0  0
    3.6005   -1.8909    1.7758 C   0  0  0  0  0  0  0  0  0  0  0  0
    1.6223    2.7049   -0.3070 C   0  0  0  0  0  0  0  0  0  0  0  0
    5.7856    1.2975    3.6496 C   0  0  0  0  0  0  0  0  0  0  0  0
    0.5443    3.5725   -0.5012 N   0  0  0  0  0  0  0  0  0  0  0  0
    7.1541    3.0586    5.1220 O   0  0  0  0  0  0  0  0  0  0  0  0
    7.0890   -0.5156    2.1738 N   0  0  0  0  0  0  0  0  0  0  0  0
    9.1974    1.0479    1.8865 C   0  0  0  0  0  0  0  0  0  0  0  0
    2.3899    0.2431    0.3683 C   0  0  0  0  0  0  0  0  0  0  0  0
    4.6728    2.3390    3.3139 C   0  0  0  0  0  0  0  0  0  0  0  0
  1  6  1  0
  1  8  1  0
  1 25  1  0
  2  3  1  0
  2 12  1  0
  2 22  1  0
  3 14  2  0
  3 24  1  0
  4 11  1  0
  5 26  1  0
  6 17  1  0
  7 17  1  0
  8  9  1  0
  8 20  2  0
  9 27  2  0
 10 13  1  0
 10 21  1  0
 10 27  1  0
 11 19  1  0
 12 25  1  0
 12 26  1  0
 15 18  2  0
 15 27  1  0
 16 21  2  0
 17 20  1  0
 18 20  1  0
 19 25  1  0
 21 23  1  0
 22 28  1  0
M  END
$$$$
