
     RDKit          3D

 65 69  0  0  0  0  0  0  0  0999 V2000
    3.8547   -2.5495    4.9812 C   0  0  0  0  0  0  0  0  0  0  0  0
    1.2897    0.2676   -0.5154 C   0  0  0  0  0  0  0  0  0  0  0  0
    7.2588    1.8504    5.1851 C   0  0  0  0  0  0  0  0  0  0  0  0
    5.0542    4.3278    1.9980 O   0  0  0  0  0  0  0  0  0  0  0  0
    0.4383    1.4959   -0.8060 C   0  0  0  0  0  0  0  0  0  0  0  0
    4.0312   -3.8612    4.3857 C   0  0  0  0  0  0  0  0  0  0  0  0
    3.7059   -4.8921    5.1449 O   0  0  0  0  0  0  0  0  0  0  0  0
    5.1598   -2.4483    7.3836 C   0  0  0  0  0  0  0  0  0  0  0  0
    9.0427   -1.8338    1.9512 N   0  0  0  0  0  0  0  0  0  0  0  0
    2.6773    0.6317   -0.6278 O   0  0  0  0  0  0  0  0  0  0  0  0
    8.6334   -1.7993    6.4860 C   0  0  0  0  0  0  0  0  0  0  0  0
    5.3547   -4.1170    3.7909 C   0  0  0  0  0  0  0  0  0  0  0  0
    5.6009    3.3405    4.0314 O   0  0  0  0  0  0  0  0  0  0  0  0
    9.2871    0.7563    2.0873 C   0  0  0  0  0  0  0  0  0  0  0  0
    5.6082    0.3532    7.4218 C   0  0  0  0  0  0  0  0  0  0  0  0
    3.3587    2.6607    1.1951 C   0  0  0  0  0  0  0  0  0  0  0  0
   -0.9577    1.3468   -0.5755 O   0  0  0  0  0  0  0  0  0  0  0  0
    1.0638   -0.3552    0.7379 O   0  0  0  0  0  0  0  0  0  0  0  0
    9.8793   -2.2145   -0.2421 C   0  0  0  0  0  0  0  0  0  0  0  0
    9.7678   -0.6504    2.4017 C   0  0  0  0  0  0  0  0  0  0  0  0
    3.4787    0.3224    0.4274 C   0  0  0  0  0  0  0  0  0  0  0  0
    2.9393    4.1131   -0.5812 O   0  0  0  0  0  0  0  0  0  0  0  0
    0.8516   -2.6377    3.1759 O   0  0  0  0  0  0  0  0  0  0  0  0
    3.0863   -1.8790    1.4670 C   0  0  0  0  0  0  0  0  0  0  0  0
    3.9872    1.3945    1.3091 C   0  0  0  0  0  0  0  0  0  0  0  0
    8.3521   -2.9437    4.2589 N   0  0  0  0  0  0  0  0  0  0  0  0
    6.5202    1.0964    6.2535 O   0  0  0  0  0  0  0  0  0  0  0  0
    6.5704   -4.5140    4.5984 C   0  0  0  0  0  0  0  0  0  0  0  0
    6.1926    0.6359    8.8680 C   0  0  0  0  0  0  0  0  0  0  0  0
    9.4156    2.7337    3.3921 C   0  0  0  0  0  0  0  0  0  0  0  0
    5.6196    4.5310    3.2593 C   0  0  0  0  0  0  0  0  0  0  0  0
    6.8877   -3.7792    5.9493 C   0  0  0  0  0  0  0  0  0  0  0  0
    7.7224   -4.1083    3.7212 C   0  0  0  0  0  0  0  0  0  0  0  0
    1.0121    2.7533   -0.1303 C   0  0  0  0  0  0  0  0  0  0  0  0
    3.7192   -2.9296    2.1092 O   0  0  0  0  0  0  0  0  0  0  0  0
    7.7838   -4.6851    6.5986 O   0  0  0  0  0  0  0  0  0  0  0  0
    9.5705   -2.7938    1.0614 C   0  0  0  0  0  0  0  0  0  0  0  0
    7.7644   -2.5890    5.5279 C   0  0  0  0  0  0  0  0  0  0  0  0
    1.6389   -3.6375    2.6100 C   0  0  0  0  0  0  0  0  0  0  0  0
   10.1012    1.8728    2.3534 O   0  0  0  0  0  0  0  0  0  0  0  0
    4.0358   -2.7908    8.3566 C   0  0  0  0  0  0  0  0  0  0  0  0
    0.2751    3.9096   -0.3240 O   0  0  0  0  0  0  0  0  0  0  0  0
   10.2876   -4.0596    1.5053 C   0  0  0  0  0  0  0  0  0  0  0  0
    8.7217   -0.3601    6.6994 O   0  0  0  0  0  0  0  0  0  0  0  0
    9.0498    1.0701    6.8847 C   0  0  0  0  0  0  0  0  0  0  0  0
    1.7048   -1.6605    0.9648 C   0  0  0  0  0  0  0  0  0  0  0  0
    4.3168   -2.0337    9.6202 C   0  0  0  0  0  0  0  0  0  0  0  0
    5.2963   -1.0889    7.2016 N   0  0  0  0  0  0  0  0  0  0  0  0
   -1.7618    2.4045   -1.2783 O   0  0  0  0  0  0  0  0  0  0  0  0
    9.3288   -0.5356   -2.0134 C   0  0  0  0  0  0  0  0  0  0  0  0
    8.9427   -1.1494   -0.6786 C   0  0  0  0  0  0  0  0  0  0  0  0
    5.7517   -3.5090    6.7413 O   0  0  0  0  0  0  0  0  0  0  0  0
    2.4588    2.9872    0.0543 C   0  0  0  0  0  0  0  0  0  0  0  0
    5.9804    5.6101    3.7983 O   0  0  0  0  0  0  0  0  0  0  0  0
    4.2077    1.1938    7.3028 C   0  0  0  0  0  0  0  0  0  0  0  0
    8.1282    1.0247    1.6387 O   0  0  0  0  0  0  0  0  0  0  0  0
    3.7964    3.7927    2.0669 C   0  0  0  0  0  0  0  0  0  0  0  0
    3.9645   -1.0526    0.6205 C   0  0  0  0  0  0  0  0  0  0  0  0
    5.2741   -1.3743    0.6625 O   0  0  0  0  0  0  0  0  0  0  0  0
    3.0571   -3.7419    3.1244 C   0  0  0  0  0  0  0  0  0  0  0  0
    7.6294   -4.4809    2.4655 O   0  0  0  0  0  0  0  0  0  0  0  0
    9.6294    1.7548    5.6682 C   0  0  0  0  0  0  0  0  0  0  0  0
    8.6456    1.8609    4.4566 C   0  0  0  0  0  0  0  0  0  0  0  0
    6.6154    3.2634    5.0396 C   0  0  0  0  0  0  0  0  0  0  0  0
    8.8397    1.7652    7.9393 O   0  0  0  0  0  0  0  0  0  0  0  0
  1  6  1  0
  2  5  1  0
  2 10  1  0
  2 18  1  0
  3 27  1  0
  3 63  1  0
  3 64  1  0
  4 31  1  0
  4 57  1  0
  5 17  1  0
  5 34  1  0
  6  7  1  0
  6 12  1  0
  6 60  1  0
  8 41  1  0
  8 48  1  0
  8 52  1  0
  9 20  1  0
  9 37  1  0
 10 21  1  0
 11 38  1  0
 11 44  1  0
 12 28  1  0
 13 31  1  0
 13 64  1  0
 14 20  1  0
 14 40  1  0
 14 56  2  0
 15 27  1  0
 15 29  1  0
 15 48  1  0
 15 55  1  0
 16 25  1  0
 16 53  1  0
 16 57  1  0
 17 49  1  0
 18 46  1  0
 19 37  1  0
 19 51  1  0
 21 25  2  3
 21 58  1  0
 22 53  1  0
 23 39  1  0
 24 35  1  0
 24 46  1  0
 24 58  1  0
 26 33  1  0
 26 38  1  0
 28 32  1  0
 28 33  1  0
 30 40  1  0
 30 63  1  0
 31 54  2  0
 32 36  1  0
 32 38  1  0
 32 52  1  0
 33 61  2  0
 34 42  1  0
 34 53  1  0
 35 60  1  0
 37 43  1  0
 39 60  1  0
 41 47  1  0
 44 45  1  0
 45 62  1  0
 45 65  2  0
 50 51  1  0
 58 59  1  0
 62 63  1  0
M  END
$$$$
