
     RDKit          3D

 31 33  0  0  0  0  0  0  0  0999 V2000
   10.1047   -1.1681   -0.1386 C   0  0  0  0  0  0  0  0  0  0  0  0
    3.3074   -2.2244    2.2671 N   0  0  0  0  0  0  0  0  0  0  0  0
    2.8845   -4.3658    3.3075 C   0  0  0  0  0  0  0  0  0  0  0  0
    0.2881    2.1956   -0.6751 C   0  0  0  0  0  0  0  0  0  0  0  0
    2.4074    2.9400    0.1423 C   0  0  0  0  0  0  0  0  0  0  0  0
    3.0713   -0.9240    1.6695 C   0  0  0  0  0  0  0  0  0  0  0  0
    4.7360    2.4755    1.8779 C   0  0  0  0  0  0  0  0  0  0  0  0
    7.5322   -0.4670    1.2321 C   0  0  0  0  0  0  0  0  0  0  0  0
    5.3810    4.6826    3.6773 O   0  0  0  0  0  0  0  0  0  0  0  0
    5.4802    3.4869    3.9610 C   0  0  0  0  0  0  0  0  0  0  0  0
    1.7136    0.6541    0.4247 C   0  0  0  0  0  0  0  0  0  0  0  0
    9.2731    1.4502    1.3218 O   0  0  0  0  0  0  0  0  0  0  0  0
    2.6696    1.6876    0.6840 C   0  0  0  0  0  0  0  0  0  0  0  0
    7.7648   -1.9963    1.2846 C   0  0  0  0  0  0  0  0  0  0  0  0
    1.0137   -2.6726    2.5873 O   0  0  0  0  0  0  0  0  0  0  0  0
    6.9812    2.7506    2.3068 O   0  0  0  0  0  0  0  0  0  0  0  0
    9.9317   -0.9062    1.3921 C   0  0  0  0  0  0  0  0  0  0  0  0
    3.9660    0.1409    1.9513 C   0  0  0  0  0  0  0  0  0  0  0  0
    3.7862    1.4288    1.4790 C   0  0  0  0  0  0  0  0  0  0  0  0
    5.7972    1.0327    3.5416 C   0  0  0  0  0  0  0  0  0  0  0  0
    5.0986   -0.0451    2.8624 O   0  0  0  0  0  0  0  0  0  0  0  0
    8.8384    0.2125    1.5182 C   0  0  0  0  0  0  0  0  0  0  0  0
    4.6478   -2.6908    2.2712 C   0  0  0  0  0  0  0  0  0  0  0  0
    9.1930   -2.1478    1.9092 C   0  0  0  0  0  0  0  0  0  0  0  0
    9.3833   -3.4884    2.4534 C   0  0  0  0  0  0  0  0  0  0  0  0
    5.1011    3.0717    5.1155 O   0  0  0  0  0  0  0  0  0  0  0  0
    2.2977   -3.0682    2.7958 C   0  0  0  0  0  0  0  0  0  0  0  0
    1.9671   -0.6688    0.8754 C   0  0  0  0  0  0  0  0  0  0  0  0
    1.2478    3.1817   -0.5577 N   0  0  0  0  0  0  0  0  0  0  0  0
    5.7592    2.3757    2.8684 C   0  0  0  0  0  0  0  0  0  0  0  0
    0.5112    0.9494   -0.2455 C   0  0  0  0  0  0  0  0  0  0  0  0
  1 17  1  0
  2  6  1  0
  2 23  1  0
  2 27  1  0
  3 27  1  0
  4 29  1  0
  4 31  2  0
  5 13  1  0
  5 29  2  0
  6 18  2  0
  6 28  1  0
  7 19  1  0
  7 30  1  0
  8 14  1  0
  8 22  1  0
  9 10  2  0
 10 26  1  0
 10 30  1  0
 11 13  1  0
 11 28  2  0
 11 31  1  0
 12 22  1  0
 13 19  2  0
 14 24  1  0
 15 27  2  0
 16 30  1  0
 17 22  1  0
 17 24  1  0
 18 19  1  0
 18 21  1  0
 20 21  1  0
 20 30  1  0
 24 25  1  0
M  END
$$$$
