
     RDKit          3D

 21 23  0  0  0  0  0  0  0  0999 V2000
    5.2326   -0.7996    1.3335 C   0  0  0  0  0  0  0  0  0  0  0  0
    4.7004    4.4822    1.6327 O   0  0  0  0  0  0  0  0  0  0  0  0
    0.9399    2.4939   -0.7478 O   0  0  0  0  0  0  0  0  0  0  0  0
    7.5096   -1.7470    0.9623 C   0  0  0  0  0  0  0  0  0  0  0  0
    4.6217    4.0541    3.7807 O   0  0  0  0  0  0  0  0  0  0  0  0
    9.3347   -3.2343    1.0483 C   0  0  0  0  0  0  0  0  0  0  0  0
    4.7028    3.6829    2.5858 C   0  0  0  0  0  0  0  0  0  0  0  0
    3.8573    1.5168    1.3774 C   0  0  0  0  0  0  0  0  0  0  0  0
    7.3302   -2.6704    1.9470 C   0  0  0  0  0  0  0  0  0  0  0  0
    5.1189   -1.8044    2.3457 C   0  0  0  0  0  0  0  0  0  0  0  0
    6.5009   -0.7801    0.6561 C   0  0  0  0  0  0  0  0  0  0  0  0
    2.8096    2.2393    0.8186 C   0  0  0  0  0  0  0  0  0  0  0  0
    8.3757   -3.5447    2.1043 O   0  0  0  0  0  0  0  0  0  0  0  0
    1.8141    0.2501   -0.0788 C   0  0  0  0  0  0  0  0  0  0  0  0
    8.7367   -2.0156    0.3578 O   0  0  0  0  0  0  0  0  0  0  0  0
    1.7721    1.6987    0.0125 C   0  0  0  0  0  0  0  0  0  0  0  0
    2.8933   -0.4763    0.4240 C   0  0  0  0  0  0  0  0  0  0  0  0
    4.0460    0.0917    1.0606 C   0  0  0  0  0  0  0  0  0  0  0  0
   -0.4631    2.2898   -0.7245 C   0  0  0  0  0  0  0  0  0  0  0  0
    4.7839    2.1686    2.3802 C   0  0  0  0  0  0  0  0  0  0  0  0
    6.1186   -2.6844    2.6473 C   0  0  0  0  0  0  0  0  0  0  0  0
  1 10  1  0
  1 11  2  0
  1 18  1  0
  2  7  2  0
  3 16  1  0
  3 19  1  0
  4  9  2  0
  4 11  1  0
  4 15  1  0
  5  7  1  0
  6 13  1  0
  6 15  1  0
  7 20  1  0
  8 12  1  0
  8 18  1  0
  8 20  2  3
  9 13  1  0
  9 21  1  0
 10 21  2  0
 12 16  2  0
 14 16  1  0
 14 17  2  0
 17 18  1  0
M  END
$$$$
