
     RDKit          3D

 31 33  0  0  0  0  0  0  0  0999 V2000
    5.0225   -1.9300    1.8559 C   0  0  0  0  0  0  0  0  0  0  0  0
    3.7004    3.3365    1.2431 O   0  0  0  0  0  0  0  0  0  0  0  0
    1.7090    3.0427   -0.0049 N   0  0  0  0  0  0  0  0  0  0  0  0
    0.6275    2.3361   -0.4761 C   0  0  0  0  0  0  0  0  0  0  0  0
    6.4550   -1.5434    1.6821 N   0  0  0  0  0  0  0  0  0  0  0  0
    6.0968    2.9999    4.1796 C   0  0  0  0  0  0  0  0  0  0  0  0
    2.8117    2.4724    0.5525 C   0  0  0  0  0  0  0  0  0  0  0  0
    8.5522   -1.9978    0.1078 C   0  0  0  0  0  0  0  0  0  0  0  0
    5.3776    0.3462    5.6904 O   0  0  0  0  0  0  0  0  0  0  0  0
    5.7273    1.9033    2.0470 O   0  0  0  0  0  0  0  0  0  0  0  0
    7.2302   -1.7216    3.0743 C   0  0  0  0  0  0  0  0  0  0  0  0
    1.7532    0.4241    0.0553 C   0  0  0  0  0  0  0  0  0  0  0  0
    2.3734   -2.7625    2.2201 C   0  0  0  0  0  0  0  0  0  0  0  0
    6.5260    0.6414    4.9661 C   0  0  0  0  0  0  0  0  0  0  0  0
    0.5926    0.9489   -0.4080 C   0  0  0  0  0  0  0  0  0  0  0  0
    3.3840   -3.4925    2.8161 C   0  0  0  0  0  0  0  0  0  0  0  0
    9.1373   -3.2738    0.7665 C   0  0  0  0  0  0  0  0  0  0  0  0
   -0.4653    3.0295   -0.9494 N   0  0  0  0  0  0  0  0  0  0  0  0
    2.9001    1.0319    0.4731 C   0  0  0  0  0  0  0  0  0  0  0  0
    1.0849   -2.9290    2.5202 O   0  0  0  0  0  0  0  0  0  0  0  0
    6.6860    4.2450    3.9532 O   0  0  0  0  0  0  0  0  0  0  0  0
    9.6026   -1.2428   -0.7092 C   0  0  0  0  0  0  0  0  0  0  0  0
    4.1969    3.6311    2.5006 C   0  0  0  0  0  0  0  0  0  0  0  0
    7.4431   -1.1101    0.6213 C   0  0  0  0  0  0  0  0  0  0  0  0
    3.9485   -1.1374    1.3119 C   0  0  0  0  0  0  0  0  0  0  0  0
    5.2054    2.6256    3.0364 C   0  0  0  0  0  0  0  0  0  0  0  0
    7.0530    1.9219    4.5687 C   0  0  0  0  0  0  0  0  0  0  0  0
    4.6837   -3.0603    2.6207 C   0  0  0  0  0  0  0  0  0  0  0  0
    2.6788   -1.6646    1.4182 C   0  0  0  0  0  0  0  0  0  0  0  0
    4.0566    0.1980    0.7823 O   0  0  0  0  0  0  0  0  0  0  0  0
    7.0280   -0.5759    4.2038 C   0  0  0  0  0  0  0  0  0  0  0  0
  1  5  1  0
  1 25  2  0
  1 28  1  0
  2  7  1  0
  2 23  1  0
  3  4  1  0
  3  7  2  0
  4 15  1  0
  4 18  2  0
  5 11  1  0
  5 24  1  0
  6 21  1  0
  6 26  1  0
  6 27  1  0
  7 19  1  0
  8 17  1  0
  8 22  1  0
  8 24  1  0
  9 14  1  0
 10 26  1  0
 11 31  2  0
 12 15  1  0
 12 19  2  0
 13 16  1  0
 13 20  1  0
 13 29  2  0
 14 27  1  0
 14 31  2  0
 16 28  2  0
 19 30  1  0
 23 26  1  0
 25 29  1  0
 25 30  1  0
M  END
$$$$
