
     RDKit          3D

 25 24  0  0  0  0  0  0  0  0999 V2000
    5.6357   -0.2661    3.0734 C   0  0  0  0  0  0  0  0  0  0  0  0
   10.1083    1.9391    0.5614 C   0  0  0  0  0  0  0  0  0  0  0  0
    2.0712    2.5238   -0.0354 C   0  0  0  0  0  0  0  0  0  0  0  0
   10.0891   -1.9675    0.7960 O   0  0  0  0  0  0  0  0  0  0  0  0
    0.6432    2.1828   -0.3561 C   0  0  0  0  0  0  0  0  0  0  0  0
    6.7709   -0.8714    2.1445 C   0  0  0  0  0  0  0  0  0  0  0  0
    8.8184    0.0237    0.6934 O   0  0  0  0  0  0  0  0  0  0  0  0
    8.2519   -3.4610    2.0097 C   0  0  0  0  0  0  0  0  0  0  0  0
    8.9302   -1.3835    0.9866 C   0  0  0  0  0  0  0  0  0  0  0  0
    2.8282    2.2617    1.2578 C   0  0  0  0  0  0  0  0  0  0  0  0
    1.4981   -1.4603    0.8511 O   0  0  0  0  0  0  0  0  0  0  0  0
   -0.0635    3.1183   -1.1161 O   0  0  0  0  0  0  0  0  0  0  0  0
    5.7849    1.2648    3.4315 C   0  0  0  0  0  0  0  0  0  0  0  0
    1.7492   -0.2092    0.0718 C   0  0  0  0  0  0  0  0  0  0  0  0
    2.4216    3.8086   -0.4637 O   0  0  0  0  0  0  0  0  0  0  0  0
    4.0545    1.6566    1.6200 N   0  0  0  0  0  0  0  0  0  0  0  0
    5.0648    4.1527    4.1641 O   0  0  0  0  0  0  0  0  0  0  0  0
    6.3103   -0.6868    0.7693 O   0  0  0  0  0  0  0  0  0  0  0  0
    5.0696    4.4280    1.9553 O   0  0  0  0  0  0  0  0  0  0  0  0
    4.8352    2.2031    2.7607 C   0  0  0  0  0  0  0  0  0  0  0  0
    5.0383    3.6910    2.9684 C   0  0  0  0  0  0  0  0  0  0  0  0
    9.8757    0.5688   -0.0992 C   0  0  0  0  0  0  0  0  0  0  0  0
    7.9971   -1.9101    2.0830 C   0  0  0  0  0  0  0  0  0  0  0  0
    2.7696   -1.9209    1.4180 C   0  0  0  0  0  0  0  0  0  0  0  0
    3.0966    0.4463    0.6857 C   0  0  0  0  0  0  0  0  0  0  0  0
  1  6  1  0
  1 13  1  0
  2 22  1  0
  3  5  1  0
  3 10  1  0
  3 15  1  0
  4  9  2  0
  5 12  1  0
  6 18  1  0
  6 23  1  0
  7  9  1  0
  7 22  1  0
  8 23  1  0
  9 23  1  0
 10 16  1  0
 11 14  1  0
 11 24  1  0
 13 20  2  3
 14 25  1  0
 16 20  1  0
 16 25  1  0
 17 21  2  0
 19 21  1  0
 20 21  1  0
M  END
$$$$
