
     RDKit          3D

  9  8  0  0  0  0  0  0  0  0999 V2000
   61.0770   50.9226  109.9196 O   0  0  0  0  0  0  0  0  0  0  0  0
   62.2630   52.7648  108.0886 O   0  0  0  0  0  0  0  0  0  0  0  0
   62.4253   50.7483  109.9814 C   0  0  0  0  0  0  0  0  0  0  0  0
   64.5709   52.1132  110.6914 N   0  0  0  0  0  0  0  0  0  0  0  0
   62.9903   53.0624  109.0977 C   0  0  0  0  0  0  0  0  0  0  0  0
   63.1244   52.0775  110.2584 C   0  0  0  0  0  0  0  0  0  0  0  0
   64.5909   54.1867  110.5388 C   0  0  0  0  0  0  0  0  0  0  0  0
   62.8229   49.5298  110.7506 C   0  0  0  0  0  0  0  0  0  0  0  0
   63.8629   54.1446  109.2498 O   0  0  0  0  0  0  0  0  0  0  0  0
  1  3  1  0
  2  5  2  0
  3  6  1  0
  3  8  1  0
  4  6  1  0
  5  6  1  0
  5  9  1  0
  7  9  1  0
M  END
$$$$
