
     RDKit          3D

 11 10  0  0  0  0  0  0  0  0999 V2000
   63.9692   54.4549  109.9665 C   0  0  0  0  0  0  0  0  0  0  0  0
   61.1582   53.4809  107.7675 O   0  0  0  0  0  0  0  0  0  0  0  0
   62.1676   50.8986  109.5660 C   0  0  0  0  0  0  0  0  0  0  0  0
   63.9525   50.7871  111.1275 O   0  0  0  0  0  0  0  0  0  0  0  0
   62.0253   53.3132  108.7563 C   0  0  0  0  0  0  0  0  0  0  0  0
   63.2115   54.2579  108.7143 C   0  0  0  0  0  0  0  0  0  0  0  0
   62.8274   50.1238  110.6300 C   0  0  0  0  0  0  0  0  0  0  0  0
   63.5063   54.4423  111.1743 O   0  0  0  0  0  0  0  0  0  0  0  0
   62.0025   52.4003  109.8789 C   0  0  0  0  0  0  0  0  0  0  0  0
   65.3196   54.5696  109.7948 N   0  0  0  0  0  0  0  0  0  0  0  0
   62.6263   48.7081  110.8444 C   0  0  0  0  0  0  0  0  0  0  0  0
  1  6  1  0
  1  8  2  0
  1 10  1  0
  2  5  1  0
  3  7  1  0
  3  9  1  0
  4  7  1  0
  5  6  1  0
  5  9  1  0
  7 11  1  0
M  END
$$$$
