
     RDKit          3D

 13 15  0  0  0  0  0  0  0  0999 V2000
   61.9905   52.6432  108.6130 N   0  0  0  0  0  0  0  0  0  0  0  0
   64.6905   54.3984  110.2085 N   0  0  0  0  0  0  0  0  0  0  0  0
   61.8529   50.2423  109.2414 C   0  0  0  0  0  0  0  0  0  0  0  0
   63.6317   53.3054  110.2607 C   0  0  0  0  0  0  0  0  0  0  0  0
   62.3678   51.5525  109.3563 C   0  0  0  0  0  0  0  0  0  0  0  0
   62.8849   55.0711  108.4570 C   0  0  0  0  0  0  0  0  0  0  0  0
   63.2668   49.6203  111.1108 C   0  0  0  0  0  0  0  0  0  0  0  0
   62.5297   53.7906  109.2481 C   0  0  0  0  0  0  0  0  0  0  0  0
   62.3306   49.2851  110.1386 C   0  0  0  0  0  0  0  0  0  0  0  0
   63.3039   51.8650  110.2967 C   0  0  0  0  0  0  0  0  0  0  0  0
   63.1114   56.2558  109.5001 C   0  0  0  0  0  0  0  0  0  0  0  0
   64.0238   55.7262  110.6512 C   0  0  0  0  0  0  0  0  0  0  0  0
   63.7805   50.8975  111.1858 C   0  0  0  0  0  0  0  0  0  0  0  0
  1  5  1  0
  1  8  1  0
  2  4  1  0
  2 12  1  0
  3  5  2  0
  3  9  1  0
  4  8  1  0
  4 10  1  0
  5 10  1  0
  6  8  1  0
  6 11  1  0
  7  9  2  0
  7 13  1  0
 10 13  2  0
 11 12  1  0
M  END
$$$$
