
     RDKit          3D

 14 14  0  0  0  0  0  0  0  0999 V2000
   -8.4212    1.4239  -32.3545 O   0  0  0  0  0  0  0  0  0  0  0  0
   -7.4806    3.5458  -33.4208 O   0  0  0  0  0  0  0  0  0  0  0  0
  -10.9552    2.7688  -30.8028 N   0  0  0  0  0  0  0  0  0  0  0  0
   -7.8517    6.2482  -30.6584 O   0  0  0  0  0  0  0  0  0  0  0  0
   -6.0772    2.1476  -31.8875 O   0  0  0  0  0  0  0  0  0  0  0  0
   -8.2164    3.5848  -31.0220 O   0  0  0  0  0  0  0  0  0  0  0  0
   -9.4078    4.5898  -30.8992 C   0  0  0  0  0  0  0  0  0  0  0  0
  -10.3684    3.7778  -29.9050 C   0  0  0  0  0  0  0  0  0  0  0  0
   -7.5314    2.6321  -32.1863 P   0  0  0  0  0  0  0  0  0  0  0  0
   -7.4215    3.8068  -29.8113 C   0  0  0  0  0  0  0  0  0  0  0  0
   -8.8841    5.6635  -29.7944 C   0  0  0  0  0  0  0  0  0  0  0  0
  -10.3454    4.2356  -27.2637 S   0  0  0  0  0  0  0  0  0  0  0  0
   -9.4995    3.6136  -28.6346 C   0  0  0  0  0  0  0  0  0  0  0  0
   -8.2689    4.5890  -28.8051 C   0  0  0  0  0  0  0  0  0  0  0  0
  1  9  1  0
  2  9  1  0
  3  8  1  0
  4 11  1  0
  5  9  1  0
  6  9  1  0
  6 10  1  0
  7  8  1  0
  7 11  1  0
  8 13  1  0
 10 14  1  0
 11 14  1  0
 12 13  1  0
 13 14  1  0
M  END
$$$$
