
     RDKit          3D

 11 11  0  0  0  0  0  0  0  0999 V2000
   -7.4523    4.0660  -29.6880 N   0  0  0  0  0  0  0  0  0  0  0  0
   -7.4837    2.3282  -32.1302 P   0  0  0  0  0  0  0  0  0  0  0  0
   -8.5023    1.2458  -32.3964 O   0  0  0  0  0  0  0  0  0  0  0  0
   -6.0859    1.8376  -31.9347 O   0  0  0  0  0  0  0  0  0  0  0  0
  -10.2357    4.2132  -30.1419 N   0  0  0  0  0  0  0  0  0  0  0  0
   -9.6693    4.7397  -28.9594 C   0  0  0  0  0  0  0  0  0  0  0  0
   -7.8323    6.2678  -28.8352 N   0  0  0  0  0  0  0  0  0  0  0  0
   -7.4467    3.3429  -33.3022 O   0  0  0  0  0  0  0  0  0  0  0  0
   -9.3393    3.8568  -31.1625 C   0  0  0  0  0  0  0  0  0  0  0  0
   -8.0358    3.1669  -30.6705 C   0  0  0  0  0  0  0  0  0  0  0  0
   -8.2587    5.0507  -29.1282 C   0  0  0  0  0  0  0  0  0  0  0  0
  1 10  1  0
  1 11  1  0
  2  3  1  0
  2  4  1  0
  2  8  1  0
  2 10  1  0
  5  6  1  0
  5  9  1  0
  6 11  1  0
  7 11  2  0
  9 10  1  0
M  END
$$$$
