
     RDKit          3D

 11 10  0  0  0  0  0  0  0  0999 V2000
   -7.3214    3.5353  -30.9444 O   0  0  0  0  0  0  0  0  0  0  0  0
   -7.7361    6.0006  -30.1822 O   0  0  0  0  0  0  0  0  0  0  0  0
   -8.0712    5.0838  -29.3626 N   0  0  0  0  0  0  0  0  0  0  0  0
  -10.5882    4.0756  -29.6420 N   0  0  0  0  0  0  0  0  0  0  0  0
   -7.8268    3.7195  -29.7493 C   0  0  0  0  0  0  0  0  0  0  0  0
   -6.0012    1.7793  -32.0564 O   0  0  0  0  0  0  0  0  0  0  0  0
   -7.3675    2.5132  -32.1243 P   0  0  0  0  0  0  0  0  0  0  0  0
   -8.8783    5.3774  -28.1618 C   0  0  0  0  0  0  0  0  0  0  0  0
   -8.5134    1.5249  -32.1077 O   0  0  0  0  0  0  0  0  0  0  0  0
  -10.0514    4.3798  -28.0844 C   0  0  0  0  0  0  0  0  0  0  0  0
   -7.3922    3.3835  -33.4225 O   0  0  0  0  0  0  0  0  0  0  0  0
  1  5  1  0
  1  7  1  0
  2  3  1  0
  3  5  1  0
  3  8  1  0
  4 10  1  0
  6  7  1  0
  7  9  1  0
  7 11  1  0
  8 10  1  0
M  END
$$$$
