
     RDKit          3D

 30 31  0  0  0  0  0  0  0  0999 V2000
    5.6381    2.8384    2.8527 C   0  0  0  0  0  0  0  0  0  0  0  0
    3.1400    2.4664    0.4902 O   0  0  0  0  0  0  0  0  0  0  0  0
    5.0283    4.2066    2.9089 C   0  0  0  0  0  0  0  0  0  0  0  0
    1.0372   -0.2466    0.1730 O   0  0  0  0  0  0  0  0  0  0  0  0
   -0.9105    1.6915   -0.6269 O   0  0  0  0  0  0  0  0  0  0  0  0
    2.1571   -0.8303    0.8303 C   0  0  0  0  0  0  0  0  0  0  0  0
    3.1870    0.1167    1.0520 C   0  0  0  0  0  0  0  0  0  0  0  0
    2.0830   -2.0611    1.1656 O   0  0  0  0  0  0  0  0  0  0  0  0
    5.1889    4.8048    4.0194 O   0  0  0  0  0  0  0  0  0  0  0  0
    9.9551   -1.2876    1.0957 P   0  0  0  0  0  0  0  0  0  0  0  0
    0.5511    3.3645   -0.6075 N   0  0  0  0  0  0  0  0  0  0  0  0
    2.5987    1.3136    0.5385 C   0  0  0  0  0  0  0  0  0  0  0  0
   10.0355    0.2593    0.1261 C   0  0  0  0  0  0  0  0  0  0  0  0
    7.7881   -0.2766    2.3183 C   0  0  0  0  0  0  0  0  0  0  0  0
    6.4362   -0.3318    2.9646 C   0  0  0  0  0  0  0  0  0  0  0  0
    4.8735    1.6395    3.0296 C   0  0  0  0  0  0  0  0  0  0  0  0
    0.2757    2.0294   -0.4837 C   0  0  0  0  0  0  0  0  0  0  0  0
   10.7301   -0.9021    2.4599 O   0  0  0  0  0  0  0  0  0  0  0  0
    4.1636   -3.1595    2.3234 O   0  0  0  0  0  0  0  0  0  0  0  0
    5.4410    0.5177    2.3010 N   0  0  0  0  0  0  0  0  0  0  0  0
    7.9877   -3.6317    2.5962 O   0  0  0  0  0  0  0  0  0  0  0  0
    4.5362   -1.7569    2.4010 C   0  0  0  0  0  0  0  0  0  0  0  0
    8.2989   -1.2979    1.3707 O   0  0  0  0  0  0  0  0  0  0  0  0
   10.2994   -2.6532    0.6729 O   0  0  0  0  0  0  0  0  0  0  0  0
    5.9353   -1.7811    3.0401 C   0  0  0  0  0  0  0  0  0  0  0  0
    6.8258    2.8540    2.3387 O   0  0  0  0  0  0  0  0  0  0  0  0
    4.6608    4.7623    1.8417 O   0  0  0  0  0  0  0  0  0  0  0  0
    1.2687    1.1582    0.0265 C   0  0  0  0  0  0  0  0  0  0  0  0
    4.3747   -0.3693    1.7772 C   0  0  0  0  0  0  0  0  0  0  0  0
    6.7488   -3.0126    2.6438 C   0  0  0  0  0  0  0  0  0  0  0  0
  1  3  1  0
  1 16  1  0
  1 26  1  0
  2 12  2  0
  3  9  2  0
  3 27  1  0
  4  6  1  0
  4 28  1  0
  5 17  2  0
  6  7  1  0
  6  8  2  0
  7 12  1  0
  7 29  2  3
 10 13  1  0
 10 18  1  0
 10 23  1  0
 10 24  1  0
 11 17  1  0
 12 28  1  0
 14 15  1  0
 14 23  1  0
 15 20  1  0
 15 25  1  0
 16 20  1  0
 17 28  1  0
 19 22  1  0
 20 29  1  0
 21 30  1  0
 22 25  1  0
 22 29  1  0
 25 30  1  0
M  END
$$$$
