
     RDKit          3D

 36 38  0  0  0  0  0  0  0  0999 V2000
    1.0036    2.0240   -0.2354 C   0  0  0  0  0  0  0  0  0  0  0  0
    4.2561   -1.2931    2.1913 C   0  0  0  0  0  0  0  0  0  0  0  0
    8.3865   -1.8560    0.1304 C   0  0  0  0  0  0  0  0  0  0  0  0
    2.8786    1.2496    0.8541 C   0  0  0  0  0  0  0  0  0  0  0  0
    5.4971    0.0912    4.6819 C   0  0  0  0  0  0  0  0  0  0  0  0
    2.8682    3.5154    0.2089 O   0  0  0  0  0  0  0  0  0  0  0  0
   10.0532    2.8115    5.5090 O   0  0  0  0  0  0  0  0  0  0  0  0
    4.6052    0.0714    2.3626 C   0  0  0  0  0  0  0  0  0  0  0  0
    9.5048   -1.7985   -0.7102 C   0  0  0  0  0  0  0  0  0  0  0  0
    5.0158   -4.6919    3.3309 O   0  0  0  0  0  0  0  0  0  0  0  0
    5.5493    0.5308    3.3284 C   0  0  0  0  0  0  0  0  0  0  0  0
    8.8699    2.5070    3.4416 C   0  0  0  0  0  0  0  0  0  0  0  0
    0.2849    4.2201   -0.5668 N   0  0  0  0  0  0  0  0  0  0  0  0
    2.1211   -1.1549    0.9294 C   0  0  0  0  0  0  0  0  0  0  0  0
    4.0119    1.0484    1.5404 C   0  0  0  0  0  0  0  0  0  0  0  0
    3.6284   -3.2333    4.4365 C   0  0  0  0  0  0  0  0  0  0  0  0
    0.8387    0.6342   -0.0775 C   0  0  0  0  0  0  0  0  0  0  0  0
   10.2066   -0.5736   -0.8631 N   0  0  0  0  0  0  0  0  0  0  0  0
   11.0806    3.3773    3.5880 N   0  0  0  0  0  0  0  0  0  0  0  0
    9.0571    2.7404    2.1237 O   0  0  0  0  0  0  0  0  0  0  0  0
    1.9388    0.1492    0.5727 C   0  0  0  0  0  0  0  0  0  0  0  0
    6.5657    1.4972    3.0406 C   0  0  0  0  0  0  0  0  0  0  0  0
    2.2969    2.3795    0.2798 C   0  0  0  0  0  0  0  0  0  0  0  0
    6.3829    2.3710    2.0369 O   0  0  0  0  0  0  0  0  0  0  0  0
    8.7154    0.4384    0.6045 C   0  0  0  0  0  0  0  0  0  0  0  0
    3.0944   -1.7816    1.6330 C   0  0  0  0  0  0  0  0  0  0  0  0
    7.7382    0.9108    5.0298 C   0  0  0  0  0  0  0  0  0  0  0  0
    9.8151    0.5386   -0.1981 C   0  0  0  0  0  0  0  0  0  0  0  0
   -0.0614    2.8563   -0.7149 C   0  0  0  0  0  0  0  0  0  0  0  0
    5.1461   -2.3667    2.5996 O   0  0  0  0  0  0  0  0  0  0  0  0
   10.0499    2.8422    4.2528 C   0  0  0  0  0  0  0  0  0  0  0  0
    6.6243    0.1895    5.4945 C   0  0  0  0  0  0  0  0  0  0  0  0
    4.4845   -3.4732    3.2982 C   0  0  0  0  0  0  0  0  0  0  0  0
    4.3375   -0.3201    5.2315 O   0  0  0  0  0  0  0  0  0  0  0  0
    7.7395    1.6372    3.8700 C   0  0  0  0  0  0  0  0  0  0  0  0
    8.0611   -0.7292    0.7933 C   0  0  0  0  0  0  0  0  0  0  0  0
  1 17  1  0
  1 23  1  0
  1 29  1  0
  2  8  1  0
  2 26  1  0
  2 30  1  0
  3  9  1  0
  3 36  2  0
  4 15  2  0
  4 21  1  0
  4 23  1  0
  5 11  1  0
  5 32  2  0
  5 34  1  0
  6 23  2  0
  7 31  2  0
  8 11  1  0
  8 15  1  0
  9 18  2  0
 10 33  2  0
 11 22  1  0
 12 20  1  0
 12 31  1  0
 12 35  1  0
 13 29  1  0
 14 21  1  0
 14 26  2  0
 16 33  1  0
 17 21  1  0
 18 28  1  0
 19 31  1  0
 22 24  1  0
 22 35  2  0
 25 28  2  0
 25 36  1  0
 27 32  1  0
 27 35  1  0
 30 33  1  0
M  END
$$$$
