
     RDKit          3D

 27 28  0  0  0  0  0  0  0  0999 V2000
   12.6957   60.5532   79.5354 N   0  0  0  0  0  0  0  0  0  0  0  0
   11.5614   59.6465   79.5752 C   0  0  0  0  0  0  0  0  0  0  0  0
   11.3354   61.4365   82.0863 C   0  0  0  0  0  0  0  0  0  0  0  0
    8.8482   55.6207   81.7214 N   0  0  0  0  0  0  0  0  0  0  0  0
    9.5910   57.2108   79.8035 O   0  0  0  0  0  0  0  0  0  0  0  0
    7.8180   56.4955   82.0942 O   0  0  0  0  0  0  0  0  0  0  0  0
   11.3093   56.3912   81.3675 C   0  0  0  0  0  0  0  0  0  0  0  0
   10.1750   55.9671   82.2115 C   0  0  0  0  0  0  0  0  0  0  0  0
   12.3854   62.3144   81.2087 C   0  0  0  0  0  0  0  0  0  0  0  0
   15.9844   57.0576   81.9604 C   0  0  0  0  0  0  0  0  0  0  0  0
   10.4060   60.0405   79.2478 O   0  0  0  0  0  0  0  0  0  0  0  0
   11.8091   58.2088   79.6196 C   0  0  0  0  0  0  0  0  0  0  0  0
   15.8748   58.0143   79.6282 C   0  0  0  0  0  0  0  0  0  0  0  0
   15.2006   56.3256   84.1325 O   0  0  0  0  0  0  0  0  0  0  0  0
   15.4175   56.0580   82.8835 C   0  0  0  0  0  0  0  0  0  0  0  0
   10.2687   56.2523   83.5277 O   0  0  0  0  0  0  0  0  0  0  0  0
   10.7863   57.4343   80.3886 C   0  0  0  0  0  0  0  0  0  0  0  0
   15.8942   56.6592   80.4512 C   0  0  0  0  0  0  0  0  0  0  0  0
   11.7740   54.0368   81.4798 O   0  0  0  0  0  0  0  0  0  0  0  0
   13.2494   57.7999   79.8866 C   0  0  0  0  0  0  0  0  0  0  0  0
   14.4459   55.2603   82.2144 O   0  0  0  0  0  0  0  0  0  0  0  0
   12.0441   55.2615   82.0689 C   0  0  0  0  0  0  0  0  0  0  0  0
   14.4471   58.5732   79.4104 C   0  0  0  0  0  0  0  0  0  0  0  0
   17.1744   58.4494   79.9650 O   0  0  0  0  0  0  0  0  0  0  0  0
   13.2109   55.1701   83.0092 C   0  0  0  0  0  0  0  0  0  0  0  0
   14.0100   59.9988   79.0477 C   0  0  0  0  0  0  0  0  0  0  0  0
   12.1876   62.0089   79.6668 C   0  0  0  0  0  0  0  0  0  0  0  0
  1  2  1  0
  1 26  1  0
  1 27  1  0
  2 11  2  0
  2 12  1  0
  3  9  1  0
  4  6  1  0
  4  8  1  0
  5 17  1  0
  7  8  1  0
  7 17  1  0
  7 22  1  0
  8 16  2  0
  9 27  1  0
 10 15  1  0
 10 18  1  0
 12 17  1  0
 12 20  1  0
 13 18  1  0
 13 23  1  0
 13 24  1  0
 14 15  2  0
 15 21  1  0
 19 22  1  0
 20 23  1  0
 21 25  1  0
 22 25  1  0
 23 26  1  0
M  END
$$$$
