
     RDKit          3D

 24 28  0  0  0  0  0  0  0  0999 V2000
   12.5545   59.4932   80.0529 C   0  0  0  0  0  0  0  0  0  0  0  0
   15.1405   57.2325   81.4314 C   0  0  0  0  0  0  0  0  0  0  0  0
   15.3136   58.5049   79.3113 C   0  0  0  0  0  0  0  0  0  0  0  0
   10.3980   58.4174   79.8638 C   0  0  0  0  0  0  0  0  0  0  0  0
   10.6629   60.7071   79.2319 O   0  0  0  0  0  0  0  0  0  0  0  0
   10.6297   55.2105   81.8491 C   0  0  0  0  0  0  0  0  0  0  0  0
   14.2394   56.3083   82.0148 C   0  0  0  0  0  0  0  0  0  0  0  0
   12.3207   57.2495   80.7629 N   0  0  0  0  0  0  0  0  0  0  0  0
   16.6910   59.0749   79.5393 C   0  0  0  0  0  0  0  0  0  0  0  0
   16.3220   57.3404   81.7597 O   0  0  0  0  0  0  0  0  0  0  0  0
   14.5855   58.1717   80.5315 N   0  0  0  0  0  0  0  0  0  0  0  0
   12.9009   56.3021   81.6254 C   0  0  0  0  0  0  0  0  0  0  0  0
    9.9800   54.7349   83.1342 C   0  0  0  0  0  0  0  0  0  0  0  0
   10.9679   57.2892   80.4748 C   0  0  0  0  0  0  0  0  0  0  0  0
    9.9960   56.1746   80.9187 C   0  0  0  0  0  0  0  0  0  0  0  0
   11.2141   54.1681   83.9444 O   0  0  0  0  0  0  0  0  0  0  0  0
    8.9249   58.4871   79.4411 C   0  0  0  0  0  0  0  0  0  0  0  0
   14.6265   55.4130   83.0446 C   0  0  0  0  0  0  0  0  0  0  0  0
   12.3412   54.6689   83.3310 C   0  0  0  0  0  0  0  0  0  0  0  0
   12.0262   55.4005   82.2194 C   0  0  0  0  0  0  0  0  0  0  0  0
   13.2190   60.7118   80.1328 O   0  0  0  0  0  0  0  0  0  0  0  0
   11.1848   59.5430   79.6804 C   0  0  0  0  0  0  0  0  0  0  0  0
   13.1404   58.2950   80.4318 C   0  0  0  0  0  0  0  0  0  0  0  0
   13.6889   54.6165   83.7335 C   0  0  0  0  0  0  0  0  0  0  0  0
  1 21  1  0
  1 22  1  0
  1 23  1  0
  2  7  1  0
  2 10  2  0
  2 11  1  0
  3  9  1  0
  3 11  1  0
  4 14  1  0
  4 17  1  0
  4 22  2  0
  5 22  1  0
  6 13  1  0
  6 15  1  0
  6 20  1  0
  7 12  2  0
  7 18  1  0
  8 12  1  0
  8 14  1  0
  8 23  1  0
 11 23  1  0
 12 20  1  0
 13 16  1  0
 14 15  1  0
 16 19  1  0
 18 24  2  0
 19 20  2  0
 19 24  1  0
M  END
$$$$
