
     RDKit          3D

 21 23  0  0  0  0  0  0  0  0999 V2000
   13.7108   56.2754   80.9768 C   0  0  0  0  0  0  0  0  0  0  0  0
   16.0910   56.6192   81.0258 C   0  0  0  0  0  0  0  0  0  0  0  0
   11.8592   54.2937   81.4471 C   0  0  0  0  0  0  0  0  0  0  0  0
   14.5096   58.1548   79.8778 C   0  0  0  0  0  0  0  0  0  0  0  0
   13.9439   59.7737   77.6141 C   0  0  0  0  0  0  0  0  0  0  0  0
   12.3899   58.9686   80.8199 C   0  0  0  0  0  0  0  0  0  0  0  0
    9.7601   54.5453   82.0585 N   0  0  0  0  0  0  0  0  0  0  0  0
   10.7636   53.6227   81.7945 C   0  0  0  0  0  0  0  0  0  0  0  0
   16.1483   56.8566   82.3208 F   0  0  0  0  0  0  0  0  0  0  0  0
   11.6920   60.2710   81.2089 C   0  0  0  0  0  0  0  0  0  0  0  0
   14.7488   56.9965   80.5464 C   0  0  0  0  0  0  0  0  0  0  0  0
   11.5370   55.6082   81.5389 N   0  0  0  0  0  0  0  0  0  0  0  0
   13.2338   60.0757   78.8896 C   0  0  0  0  0  0  0  0  0  0  0  0
   17.0177   56.7168   80.1734 F   0  0  0  0  0  0  0  0  0  0  0  0
   12.4144   56.6486   81.2256 C   0  0  0  0  0  0  0  0  0  0  0  0
   11.8964   57.8472   81.2773 N   0  0  0  0  0  0  0  0  0  0  0  0
   13.9785   62.3263   78.9083 O   0  0  0  0  0  0  0  0  0  0  0  0
   12.3210   61.5595   80.6406 C   0  0  0  0  0  0  0  0  0  0  0  0
   10.2693   55.7900   81.9314 C   0  0  0  0  0  0  0  0  0  0  0  0
   12.9208   61.4121   79.2277 C   0  0  0  0  0  0  0  0  0  0  0  0
   13.4183   58.9858   79.8746 C   0  0  0  0  0  0  0  0  0  0  0  0
  1 11  1  0
  1 15  2  0
  2  9  1  0
  2 11  1  0
  2 14  1  0
  3  8  1  0
  3 12  1  0
  4 11  1  0
  4 21  1  0
  5 13  1  0
  6 10  2  0
  6 16  1  0
  6 21  1  0
  7  8  1  0
  7 19  1  0
 10 18  1  0
 12 15  1  0
 12 19  1  0
 13 20  1  0
 13 21  1  0
 15 16  1  0
 17 20  1  0
 18 20  1  0
M  END
$$$$
