
     RDKit          3D

 28 30  0  0  0  0  0  0  0  0999 V2000
   30.5510   35.7851  103.8942 C   0  0  0  0  0  0  0  0  0  0  0  0
   31.8100   33.6566  104.2895 C   0  0  0  0  0  0  0  0  0  0  0  0
   26.6449   36.3599  100.9834 C   0  0  0  0  0  0  0  0  0  0  0  0
   24.2405   36.0832  100.3533 C   0  0  0  0  0  0  0  0  0  0  0  0
   30.4750   36.9693  103.6265 O   0  0  0  0  0  0  0  0  0  0  0  0
   23.2578   31.3073  103.7687 O   0  0  0  0  0  0  0  0  0  0  0  0
   26.2077   34.6360  104.2102 C   0  0  0  0  0  0  0  0  0  0  0  0
   29.6577   33.6417  103.2314 C   0  0  0  0  0  0  0  0  0  0  0  0
   31.6113   35.0978  104.5476 C   0  0  0  0  0  0  0  0  0  0  0  0
   28.2843   35.8774  103.8706 C   0  0  0  0  0  0  0  0  0  0  0  0
   25.0784   34.2697  103.4608 C   0  0  0  0  0  0  0  0  0  0  0  0
   31.1032   33.3916  103.0168 C   0  0  0  0  0  0  0  0  0  0  0  0
   24.4627   33.6927  107.8717 C   0  0  0  0  0  0  0  0  0  0  0  0
   26.2463   35.7465  102.1698 C   0  0  0  0  0  0  0  0  0  0  0  0
   25.0194   35.0945  102.2806 C   0  0  0  0  0  0  0  0  0  0  0  0
   24.7521   33.6780  106.4235 C   0  0  0  0  0  0  0  0  0  0  0  0
   25.6659   36.1963   99.9011 C   0  0  0  0  0  0  0  0  0  0  0  0
   24.0564   32.1773  104.3263 C   0  0  0  0  0  0  0  0  0  0  0  0
   24.3160   33.2372  103.5556 N   0  0  0  0  0  0  0  0  0  0  0  0
   31.9008   33.7800  101.9173 N   0  0  0  0  0  0  0  0  0  0  0  0
   24.6247   34.4706  108.7864 O   0  0  0  0  0  0  0  0  0  0  0  0
   24.0076   35.3332  101.4855 O   0  0  0  0  0  0  0  0  0  0  0  0
   23.9124   32.4603  105.8420 C   0  0  0  0  0  0  0  0  0  0  0  0
   31.1901   34.0600  105.3625 C   0  0  0  0  0  0  0  0  0  0  0  0
   23.2950   36.5628   99.5347 F   0  0  0  0  0  0  0  0  0  0  0  0
   25.1340   35.0301  106.4933 N   0  0  0  0  0  0  0  0  0  0  0  0
   29.4338   34.9954  103.7992 N   0  0  0  0  0  0  0  0  0  0  0  0
   26.9825   35.4877  103.4421 C   0  0  0  0  0  0  0  0  0  0  0  0
  1  5  2  0
  1  9  1  0
  1 27  1  0
  2 12  1  0
  2 24  1  0
  3 14  1  0
  3 17  1  0
  4 17  1  0
  4 22  1  0
  4 25  1  0
  6 18  2  0
  7 11  1  0
  7 28  1  0
  8 12  1  0
  8 27  1  0
  9 24  1  0
 10 27  1  0
 10 28  1  0
 11 15  1  0
 11 19  2  3
 12 20  1  0
 13 16  1  0
 13 21  2  0
 14 15  1  0
 14 28  2  0
 15 22  1  0
 16 23  1  0
 16 26  1  0
 18 19  1  0
 18 23  1  0
M  END
$$$$
