
     RDKit          3D

 18 18  0  0  0  0  0  0  0  0999 V2000
   25.9876   36.3734  101.0217 C   0  0  0  0  0  0  0  0  0  0  0  0
   25.8281   35.4656  103.3708 C   0  0  0  0  0  0  0  0  0  0  0  0
   25.0666   36.1380  106.0173 O   0  0  0  0  0  0  0  0  0  0  0  0
   26.5381   35.4198  102.0768 C   0  0  0  0  0  0  0  0  0  0  0  0
   29.9362   33.2576  103.1320 C   0  0  0  0  0  0  0  0  0  0  0  0
   32.0653   34.3400  104.7810 C   0  0  0  0  0  0  0  0  0  0  0  0
   23.8507   36.8762   99.8811 O   0  0  0  0  0  0  0  0  0  0  0  0
   32.2436   33.4398  103.6929 N   0  0  0  0  0  0  0  0  0  0  0  0
   29.6241   36.6910  103.6657 O   0  0  0  0  0  0  0  0  0  0  0  0
   31.4736   35.5092  104.2981 N   0  0  0  0  0  0  0  0  0  0  0  0
   24.4793   35.9568  100.7390 C   0  0  0  0  0  0  0  0  0  0  0  0
   31.2993   33.4258  102.6621 C   0  0  0  0  0  0  0  0  0  0  0  0
   27.9240   34.4226  104.3022 N   0  0  0  0  0  0  0  0  0  0  0  0
   25.8623   35.0750  105.8397 C   0  0  0  0  0  0  0  0  0  0  0  0
   30.1655   35.5785  103.9378 C   0  0  0  0  0  0  0  0  0  0  0  0
   29.3615   34.3311  103.9643 C   0  0  0  0  0  0  0  0  0  0  0  0
   25.5937   33.9132  106.2547 O   0  0  0  0  0  0  0  0  0  0  0  0
   26.7324   35.2490  104.5964 C   0  0  0  0  0  0  0  0  0  0  0  0
  1  4  1  0
  1 11  1  0
  2  4  1  0
  2 18  1  0
  3 14  2  0
  5 12  1  0
  5 16  2  0
  6  8  1  0
  6 10  1  0
  7 11  1  0
  8 12  1  0
  9 15  2  0
 10 15  1  0
 13 16  1  0
 13 18  1  0
 14 17  1  0
 14 18  1  0
 15 16  1  0
M  END
$$$$
