
     RDKit          3D

 35 38  0  0  0  0  0  0  0  0999 V2000
   25.4106   36.5192  101.0807 C   0  0  0  0  0  0  0  0  0  0  0  0
   26.5392   36.3126  101.9296 O   0  0  0  0  0  0  0  0  0  0  0  0
   23.8956   33.6777  105.1059 C   0  0  0  0  0  0  0  0  0  0  0  0
   22.8174   32.9743  104.6451 C   0  0  0  0  0  0  0  0  0  0  0  0
   25.0889   34.7671  103.0148 C   0  0  0  0  0  0  0  0  0  0  0  0
   28.2917   35.6310  104.9622 C   0  0  0  0  0  0  0  0  0  0  0  0
   27.6628   34.2295   97.2193 C   0  0  0  0  0  0  0  0  0  0  0  0
   29.5260   36.9979  103.4860 O   0  0  0  0  0  0  0  0  0  0  0  0
   24.8414   34.2954  104.3329 C   0  0  0  0  0  0  0  0  0  0  0  0
   24.1195   33.9108  106.5056 C   0  0  0  0  0  0  0  0  0  0  0  0
   23.1316   33.5685  107.3662 C   0  0  0  0  0  0  0  0  0  0  0  0
   25.9701   34.8126  105.2299 C   0  0  0  0  0  0  0  0  0  0  0  0
   24.2736   35.7670   99.0091 C   0  0  0  0  0  0  0  0  0  0  0  0
   25.4667   34.5731  106.6178 C   0  0  0  0  0  0  0  0  0  0  0  0
   21.8743   32.5497  105.5238 C   0  0  0  0  0  0  0  0  0  0  0  0
   31.3180   34.7716  103.0724 N   0  0  0  0  0  0  0  0  0  0  0  0
   32.0282   33.5705  103.3940 C   0  0  0  0  0  0  0  0  0  0  0  0
   28.9393   35.0206   96.9733 C   0  0  0  0  0  0  0  0  0  0  0  0
   32.1618   33.5106  104.8336 C   0  0  0  0  0  0  0  0  0  0  0  0
   28.9596   36.2913   97.0171 O   0  0  0  0  0  0  0  0  0  0  0  0
   28.4472   34.8301  106.1045 O   0  0  0  0  0  0  0  0  0  0  0  0
   29.3481   35.8728  104.0429 C   0  0  0  0  0  0  0  0  0  0  0  0
   26.2619   35.5550  103.0256 C   0  0  0  0  0  0  0  0  0  0  0  0
   24.5278   37.2799  101.4465 O   0  0  0  0  0  0  0  0  0  0  0  0
   30.0671   34.3293   96.8517 O   0  0  0  0  0  0  0  0  0  0  0  0
   26.6778   35.6019   99.1541 C   0  0  0  0  0  0  0  0  0  0  0  0
   30.5233   35.0552  104.1827 C   0  0  0  0  0  0  0  0  0  0  0  0
   26.9335   35.4021  104.3709 C   0  0  0  0  0  0  0  0  0  0  0  0
   31.4583   32.4917  102.8809 O   0  0  0  0  0  0  0  0  0  0  0  0
   30.9666   34.2128  105.3143 C   0  0  0  0  0  0  0  0  0  0  0  0
   26.0348   34.8438  107.6978 O   0  0  0  0  0  0  0  0  0  0  0  0
   21.9796   32.9012  106.8820 C   0  0  0  0  0  0  0  0  0  0  0  0
   26.4958   35.0568   97.7797 C   0  0  0  0  0  0  0  0  0  0  0  0
   25.4280   35.8246   99.8352 N   0  0  0  0  0  0  0  0  0  0  0  0
   23.0106   35.8870   99.7042 N   0  0  0  0  0  0  0  0  0  0  0  0
  1  2  1  0
  1 24  2  0
  1 34  1  0
  2 23  1  0
  3  4  1  0
  3  9  1  0
  3 10  1  0
  4 15  2  0
  5  9  1  0
  5 23  1  0
  6 21  1  0
  6 22  1  0
  6 28  1  0
  7 18  1  0
  7 33  1  0
  8 22  2  0
  9 12  2  0
 10 11  2  0
 10 14  1  0
 11 32  1  0
 12 14  1  0
 12 28  1  0
 13 34  1  0
 13 35  1  0
 14 31  2  0
 15 32  1  0
 16 17  1  0
 16 27  1  0
 17 19  1  0
 17 29  1  0
 18 20  2  0
 18 25  1  0
 19 30  1  0
 22 27  1  0
 23 28  1  0
 26 33  1  0
 26 34  1  0
 27 30  1  0
M  END
$$$$
