
     RDKit          3D

 24 23  0  0  0  0  0  0  0  0999 V2000
   29.0875   33.9815  103.5852 C   0  0  0  0  0  0  0  0  0  0  0  0
   30.6139   32.1948  102.4483 F   0  0  0  0  0  0  0  0  0  0  0  0
   28.2469   35.9887  103.7912 C   0  0  0  0  0  0  0  0  0  0  0  0
   32.2781   32.8772  103.7600 N   0  0  0  0  0  0  0  0  0  0  0  0
   24.7255   36.5679  100.5356 C   0  0  0  0  0  0  0  0  0  0  0  0
   31.3254   33.2772  102.8361 C   0  0  0  0  0  0  0  0  0  0  0  0
   30.3993   36.6802  104.1988 F   0  0  0  0  0  0  0  0  0  0  0  0
   24.9432   35.2597  102.6869 C   0  0  0  0  0  0  0  0  0  0  0  0
   30.3725   34.2980  103.5500 C   0  0  0  0  0  0  0  0  0  0  0  0
   26.7488   34.2771  104.4575 C   0  0  0  0  0  0  0  0  0  0  0  0
   26.4316   35.1541  105.6596 O   0  0  0  0  0  0  0  0  0  0  0  0
   25.1708   35.2830  101.2451 C   0  0  0  0  0  0  0  0  0  0  0  0
   25.6311   34.1734  103.4084 C   0  0  0  0  0  0  0  0  0  0  0  0
   32.0878   35.2631  104.9865 F   0  0  0  0  0  0  0  0  0  0  0  0
   28.0419   34.7589  103.9227 N   0  0  0  0  0  0  0  0  0  0  0  0
   25.8218   33.2278  107.0449 O   0  0  0  0  0  0  0  0  0  0  0  0
   31.9705   33.8358  101.8270 O   0  0  0  0  0  0  0  0  0  0  0  0
   23.9631   35.1524  105.6704 O   0  0  0  0  0  0  0  0  0  0  0  0
   25.3544   37.5886  100.8378 O   0  0  0  0  0  0  0  0  0  0  0  0
   23.7216   36.3471   99.7498 O   0  0  0  0  0  0  0  0  0  0  0  0
   25.1582   34.5549  106.6617 P   0  0  0  0  0  0  0  0  0  0  0  0
   29.0653   36.8959  103.8075 N   0  0  0  0  0  0  0  0  0  0  0  0
   30.9850   35.3710  104.2548 C   0  0  0  0  0  0  0  0  0  0  0  0
   24.4522   34.9067  108.0533 O   0  0  0  0  0  0  0  0  0  0  0  0
  1  9  1  0
  1 15  1  0
  2  6  1  0
  3 15  1  0
  3 22  2  0
  4  6  1  0
  5 12  1  0
  5 19  2  0
  5 20  1  0
  6  9  1  0
  6 17  1  0
  7 23  1  0
  8 12  1  0
  8 13  1  0
  9 23  1  0
 10 11  1  0
 10 13  1  0
 10 15  1  0
 11 21  1  0
 14 23  1  0
 16 21  1  0
 18 21  1  0
 21 24  1  0
M  END
$$$$
