
     RDKit          3D

 11 12  0  0  0  0  0  0  0  0999 V2000
   47.9008   53.8469   -1.7739 N   0  0  0  0  0  0  0  0  0  0  0  0
   47.2407   52.9825   -0.9733 C   0  0  0  0  0  0  0  0  0  0  0  0
   46.4131   54.7038    0.4457 C   0  0  0  0  0  0  0  0  0  0  0  0
   46.5137   53.3697    0.0480 N   0  0  0  0  0  0  0  0  0  0  0  0
   46.9032   49.4842   -0.7694 N   0  0  0  0  0  0  0  0  0  0  0  0
   47.2910   51.5543   -1.3917 C   0  0  0  0  0  0  0  0  0  0  0  0
   48.2893   49.6312   -0.8847 N   0  0  0  0  0  0  0  0  0  0  0  0
   46.3375   50.7502   -0.7605 C   0  0  0  0  0  0  0  0  0  0  0  0
   47.4441   55.5617   -0.1838 C   0  0  0  0  0  0  0  0  0  0  0  0
   48.5567   50.9314   -1.2460 C   0  0  0  0  0  0  0  0  0  0  0  0
   47.5278   55.2271   -1.6547 C   0  0  0  0  0  0  0  0  0  0  0  0
  1  2  1  0
  1 11  1  0
  2  4  2  0
  2  6  1  0
  3  4  1  0
  3  9  1  0
  5  7  1  0
  5  8  1  0
  6  8  1  0
  6 10  1  0
  7 10  1  0
  9 11  1  0
M  END
$$$$
