
     RDKit          3D

  6  5  0  0  0  0  0  0  0  0999 V2000
   48.2087   54.8935    1.3279 O   0  0  0  0  0  0  0  0  0  0  0  0
   47.8185   52.7330    1.0506 N   0  0  0  0  0  0  0  0  0  0  0  0
   47.6630   53.9325    0.7177 C   0  0  0  0  0  0  0  0  0  0  0  0
   47.2854   54.3365   -1.6997 C   0  0  0  0  0  0  0  0  0  0  0  0
   46.6491   54.3483   -0.2796 C   0  0  0  0  0  0  0  0  0  0  0  0
   48.1726   53.0361   -1.8355 N   0  0  0  0  0  0  0  0  0  0  0  0
  1  3  2  0
  2  3  1  0
  3  5  1  0
  4  5  1  0
  4  6  1  0
M  END
$$$$
