
     RDKit          3D

 11 11  0  0  0  0  0  0  0  0999 V2000
   13.5502   35.6698   11.7808 N   0  0  0  0  0  0  0  0  0  0  0  0
   10.5452   33.3888   17.1128 C   0  0  0  0  0  0  0  0  0  0  0  0
   13.2369   34.5119   15.0086 C   0  0  0  0  0  0  0  0  0  0  0  0
   12.4908   32.3019   15.6238 C   0  0  0  0  0  0  0  0  0  0  0  0
   13.7668   35.7137   15.2123 C   0  0  0  0  0  0  0  0  0  0  0  0
   14.2131   36.1860   13.9984 N   0  0  0  0  0  0  0  0  0  0  0  0
   13.4479   34.1687   13.6823 C   0  0  0  0  0  0  0  0  0  0  0  0
   13.8819   35.3008   13.0548 C   0  0  0  0  0  0  0  0  0  0  0  0
   11.5127   34.1158   16.6392 N   0  0  0  0  0  0  0  0  0  0  0  0
   10.0450   32.2865   16.9295 N   0  0  0  0  0  0  0  0  0  0  0  0
   12.4533   33.6401   15.8264 C   0  0  0  0  0  0  0  0  0  0  0  0
  1  8  2  0
  2  9  1  0
  2 10  2  0
  3  5  1  0
  3  7  1  0
  3 11  1  0
  4 11  1  0
  5  6  1  0
  6  8  1  0
  7  8  1  0
  9 11  2  3
M  END
$$$$
