
     RDKit          3D

 13 14  0  0  0  0  0  0  0  0999 V2000
   14.6315   35.0474   12.0065 C   0  0  0  0  0  0  0  0  0  0  0  0
   13.5601   34.1978   14.2007 N   0  0  0  0  0  0  0  0  0  0  0  0
   10.8278   31.9364   16.5057 C   0  0  0  0  0  0  0  0  0  0  0  0
   11.8421   34.0217   16.0132 C   0  0  0  0  0  0  0  0  0  0  0  0
   13.0389   36.1033   15.1359 C   0  0  0  0  0  0  0  0  0  0  0  0
   13.7653   36.3748   13.9730 N   0  0  0  0  0  0  0  0  0  0  0  0
   11.8281   32.6231   15.9441 C   0  0  0  0  0  0  0  0  0  0  0  0
    9.8384   32.5745   17.1999 N   0  0  0  0  0  0  0  0  0  0  0  0
    9.9325   33.9296   17.3617 N   0  0  0  0  0  0  0  0  0  0  0  0
   12.8265   34.7352   15.2047 C   0  0  0  0  0  0  0  0  0  0  0  0
   10.9092   34.6274   16.8060 C   0  0  0  0  0  0  0  0  0  0  0  0
   14.0258   35.1852   13.3638 C   0  0  0  0  0  0  0  0  0  0  0  0
   12.6634   37.0741   15.9062 O   0  0  0  0  0  0  0  0  0  0  0  0
  1 12  1  0
  2 10  1  0
  2 12  2  0
  3  7  2  0
  3  8  1  0
  4  7  1  0
  4 10  2  3
  4 11  1  0
  5  6  1  0
  5 10  1  0
  5 13  2  0
  6 12  1  0
  8  9  1  0
  9 11  2  0
M  END
$$$$
