
     RDKit          3D

 15 16  0  0  0  0  0  0  0  0999 V2000
   12.5675   32.4586   14.6891 C   0  0  0  0  0  0  0  0  0  0  0  0
   12.9867   36.5724   16.4392 N   0  0  0  0  0  0  0  0  0  0  0  0
   13.2537   35.5366   11.6962 N   0  0  0  0  0  0  0  0  0  0  0  0
   13.1788   37.0095   15.1536 C   0  0  0  0  0  0  0  0  0  0  0  0
   13.2031   34.3892   12.6445 C   0  0  0  0  0  0  0  0  0  0  0  0
   12.6054   35.4386   16.9084 N   0  0  0  0  0  0  0  0  0  0  0  0
   10.9474   32.2729   16.5116 C   0  0  0  0  0  0  0  0  0  0  0  0
   12.6165   33.8729   15.0071 C   0  0  0  0  0  0  0  0  0  0  0  0
   11.7374   31.6342   15.4784 C   0  0  0  0  0  0  0  0  0  0  0  0
   13.1632   36.1694   14.0949 N   0  0  0  0  0  0  0  0  0  0  0  0
   11.3867   33.4438   16.9937 N   0  0  0  0  0  0  0  0  0  0  0  0
   13.0647   34.8456   14.0171 C   0  0  0  0  0  0  0  0  0  0  0  0
   13.2303   38.2764   14.8937 O   0  0  0  0  0  0  0  0  0  0  0  0
    9.8645   31.7848   16.9249 O   0  0  0  0  0  0  0  0  0  0  0  0
   12.2507   34.2650   16.3066 C   0  0  0  0  0  0  0  0  0  0  0  0
  1  8  1  0
  1  9  2  0
  2  4  1  0
  2  6  2  0
  3  5  1  0
  4 10  1  0
  4 13  2  0
  5 12  1  0
  6 15  1  0
  7  9  1  0
  7 11  1  0
  7 14  2  0
  8 12  2  0
  8 15  1  0
 10 12  1  0
 11 15  2  0
M  END
$$$$
