
     RDKit          3D

 14 14  0  0  0  0  0  0  0  0999 V2000
   15.4463   33.0636   13.5090 C   0  0  0  0  0  0  0  0  0  0  0  0
   15.3916   35.4023   11.7566 O   0  0  0  0  0  0  0  0  0  0  0  0
   12.9966   33.0269   15.2437 C   0  0  0  0  0  0  0  0  0  0  0  0
   10.0436   34.0868   17.2239 C   0  0  0  0  0  0  0  0  0  0  0  0
   13.0321   35.3878   12.2867 C   0  0  0  0  0  0  0  0  0  0  0  0
   13.1154   35.4048   15.5564 N   0  0  0  0  0  0  0  0  0  0  0  0
   11.9831   35.3617   16.3124 C   0  0  0  0  0  0  0  0  0  0  0  0
   13.6081   34.2780   14.9729 C   0  0  0  0  0  0  0  0  0  0  0  0
   11.8981   33.0123   15.9912 C   0  0  0  0  0  0  0  0  0  0  0  0
   11.3121   34.1457   16.5172 C   0  0  0  0  0  0  0  0  0  0  0  0
    9.6528   32.7380   17.3591 O   0  0  0  0  0  0  0  0  0  0  0  0
   15.8234   32.0890   14.7523 C   0  0  0  0  0  0  0  0  0  0  0  0
   14.8080   34.4065   13.9999 C   0  0  0  0  0  0  0  0  0  0  0  0
   14.4834   35.2634   12.7289 C   0  0  0  0  0  0  0  0  0  0  0  0
  1 12  1  0
  1 13  1  0
  2 14  1  0
  3  8  1  0
  3  9  2  0
  4 10  1  0
  4 11  1  0
  5 14  1  0
  6  7  1  0
  6  8  2  0
  7 10  2  0
  8 13  1  0
  9 10  1  0
 13 14  1  0
M  END
$$$$
