
     RDKit          3D

 12 12  0  0  0  0  0  0  0  0999 V2000
  -14.0229   -6.5121    4.7451 N   0  0  0  0  0  0  0  0  0  0  0  0
  -18.9491   -6.5399    4.2838 C   0  0  0  0  0  0  0  0  0  0  0  0
  -11.4770   -7.0252    3.9012 S   0  0  0  0  0  0  0  0  0  0  0  0
  -18.5836   -5.1573    4.1807 C   0  0  0  0  0  0  0  0  0  0  0  0
  -18.0884   -7.3483    4.4295 N   0  0  0  0  0  0  0  0  0  0  0  0
  -12.5848   -6.5313    5.0393 C   0  0  0  0  0  0  0  0  0  0  0  0
  -14.9521   -5.5417    4.8631 C   0  0  0  0  0  0  0  0  0  0  0  0
  -17.2701   -4.8777    4.3517 C   0  0  0  0  0  0  0  0  0  0  0  0
  -16.7585   -6.9036    4.6655 C   0  0  0  0  0  0  0  0  0  0  0  0
  -12.1416   -6.0595    5.7930 O   0  0  0  0  0  0  0  0  0  0  0  0
  -16.2865   -5.7977    4.5743 C   0  0  0  0  0  0  0  0  0  0  0  0
  -20.5435   -7.0120    4.1928 Cl  0  0  0  0  0  0  0  0  0  0  0  0
  1  6  1  0
  1  7  2  3
  2  4  1  0
  2  5  2  0
  2 12  1  0
  3  6  1  0
  4  8  2  0
  5  9  1  0
  6 10  2  0
  7 11  1  0
  8 11  1  0
  9 11  2  0
M  END
$$$$
