
     RDKit          3D

 19 20  0  0  0  0  0  0  0  0999 V2000
  -21.2730   -7.9651    5.1255 C   0  0  0  0  0  0  0  0  0  0  0  0
  -17.0089   -6.5202    4.2990 C   0  0  0  0  0  0  0  0  0  0  0  0
  -13.6792   -6.6133    4.8189 C   0  0  0  0  0  0  0  0  0  0  0  0
  -14.9913   -6.1261    4.8312 C   0  0  0  0  0  0  0  0  0  0  0  0
  -12.5316   -6.3370    5.5729 C   0  0  0  0  0  0  0  0  0  0  0  0
  -20.3571   -8.0413    3.9158 O   0  0  0  0  0  0  0  0  0  0  0  0
  -19.2281   -7.2854    4.2858 C   0  0  0  0  0  0  0  0  0  0  0  0
  -11.1717   -6.9675    3.9626 C   0  0  0  0  0  0  0  0  0  0  0  0
  -12.0176   -6.8448    3.6530 N   0  0  0  0  0  0  0  0  0  0  0  0
  -15.6798   -6.0740    6.0166 N   0  0  0  0  0  0  0  0  0  0  0  0
  -10.1999   -7.1372    4.6189 N   0  0  0  0  0  0  0  0  0  0  0  0
  -19.3929   -6.8019    5.5879 C   0  0  0  0  0  0  0  0  0  0  0  0
  -17.1123   -6.2229    5.5663 C   0  0  0  0  0  0  0  0  0  0  0  0
  -18.1119   -6.9982    3.6186 C   0  0  0  0  0  0  0  0  0  0  0  0
  -12.3229   -7.0776    6.1432 O   0  0  0  0  0  0  0  0  0  0  0  0
  -20.6280   -7.1384    6.0335 N   0  0  0  0  0  0  0  0  0  0  0  0
  -18.2956   -6.2190    6.2655 C   0  0  0  0  0  0  0  0  0  0  0  0
  -15.8851   -6.3543    3.9795 N   0  0  0  0  0  0  0  0  0  0  0  0
  -22.2438   -8.6339    5.3072 O   0  0  0  0  0  0  0  0  0  0  0  0
  1  6  1  0
  1 16  1  0
  1 19  2  0
  2 13  1  0
  2 14  1  0
  2 18  2  0
  3  4  1  0
  3  5  1  0
  4 10  2  0
  4 18  1  0
  5 15  1  0
  6  7  1  0
  7 12  2  0
  7 14  1  0
  8  9  3  0
  8 11  1  0
 10 13  1  0
 12 16  1  0
 12 17  1  0
 13 17  2  0
M  END
$$$$
