
     RDKit          3D

 13 13  0  0  0  0  0  0  0  0999 V2000
  -11.6452   -7.0364    3.3450 O   0  0  0  0  0  0  0  0  0  0  0  0
  -10.5811   -6.8486    4.9606 O   0  0  0  0  0  0  0  0  0  0  0  0
  -17.8942   -6.4761    4.6822 C   0  0  0  0  0  0  0  0  0  0  0  0
  -19.2046   -6.9713    4.7016 C   0  0  0  0  0  0  0  0  0  0  0  0
  -15.8837   -5.2901    4.3871 C   0  0  0  0  0  0  0  0  0  0  0  0
  -17.4252   -5.2430    4.2853 C   0  0  0  0  0  0  0  0  0  0  0  0
  -13.0542   -6.5262    5.1375 C   0  0  0  0  0  0  0  0  0  0  0  0
  -16.7703   -7.1175    5.0280 C   0  0  0  0  0  0  0  0  0  0  0  0
  -20.1895   -6.9260    5.4941 N   0  0  0  0  0  0  0  0  0  0  0  0
  -14.2347   -7.2085    5.1549 C   0  0  0  0  0  0  0  0  0  0  0  0
  -15.5500   -6.4924    4.8514 C   0  0  0  0  0  0  0  0  0  0  0  0
  -11.7071   -6.8760    4.4487 C   0  0  0  0  0  0  0  0  0  0  0  0
  -12.9444   -5.7042    5.8054 O   0  0  0  0  0  0  0  0  0  0  0  0
  1 12  2  0
  2 12  1  0
  3  4  1  0
  3  6  1  0
  3  8  1  0
  4  9  2  0
  5  6  1  0
  5 11  1  0
  7 10  1  0
  7 12  1  0
  7 13  2  0
  8 11  2  0
 10 11  1  0
M  END
$$$$
