
     RDKit          3D

 41 45  0  0  0  0  0  0  0  0999 V2000
   27.4864   44.2660   17.2384 C   0  0  0  0  0  0  0  0  0  0  0  0
   31.7018   41.1165   19.6572 N   0  0  0  0  0  0  0  0  0  0  0  0
   32.4373   44.5861   16.9357 C   0  0  0  0  0  0  0  0  0  0  0  0
   30.8947   39.9891   19.3879 C   0  0  0  0  0  0  0  0  0  0  0  0
   37.2678   43.2338   19.9571 C   0  0  0  0  0  0  0  0  0  0  0  0
   28.8809   38.7278   20.1945 C   0  0  0  0  0  0  0  0  0  0  0  0
   37.8100   45.7559   15.2686 C   0  0  0  0  0  0  0  0  0  0  0  0
   27.3750   38.7497   19.8447 O   0  0  0  0  0  0  0  0  0  0  0  0
   40.8218   45.7882   17.9058 C   0  0  0  0  0  0  0  0  0  0  0  0
   37.0502   43.1958   18.4135 C   0  0  0  0  0  0  0  0  0  0  0  0
   29.7786   45.2424   15.7736 O   0  0  0  0  0  0  0  0  0  0  0  0
   33.8446   41.8926   18.6406 C   0  0  0  0  0  0  0  0  0  0  0  0
   30.2054   43.0491   15.3174 O   0  0  0  0  0  0  0  0  0  0  0  0
   39.5917   45.1111   18.4100 N   0  0  0  0  0  0  0  0  0  0  0  0
   41.6566   46.1557   19.0590 C   0  0  0  0  0  0  0  0  0  0  0  0
   29.4888   39.9735   19.7091 C   0  0  0  0  0  0  0  0  0  0  0  0
   39.9597   44.6056   19.7163 C   0  0  0  0  0  0  0  0  0  0  0  0
   31.0857   44.0356   17.3573 C   0  0  0  0  0  0  0  0  0  0  0  0
   29.8992   44.0404   16.3382 C   0  0  0  0  0  0  0  0  0  0  0  0
   29.7940   42.0738   17.7515 O   0  0  0  0  0  0  0  0  0  0  0  0
   37.2057   44.4958   17.6332 C   0  0  0  0  0  0  0  0  0  0  0  0
   31.2104   42.5342   17.7525 C   0  0  0  0  0  0  0  0  0  0  0  0
   37.0078   46.5067   12.9953 C   0  0  0  0  0  0  0  0  0  0  0  0
   38.7506   45.6422   16.2377 N   0  0  0  0  0  0  0  0  0  0  0  0
   27.6581   39.0058   21.0714 C   0  0  0  0  0  0  0  0  0  0  0  0
   41.2881   45.1586   20.1596 C   0  0  0  0  0  0  0  0  0  0  0  0
   38.4957   45.0857   17.4561 C   0  0  0  0  0  0  0  0  0  0  0  0
   28.7530   43.2397   17.2182 C   0  0  0  0  0  0  0  0  0  0  0  0
   37.9734   47.5638   13.5770 C   0  0  0  0  0  0  0  0  0  0  0  0
   36.5059   45.4947   15.6122 C   0  0  0  0  0  0  0  0  0  0  0  0
   35.1763   41.1426   18.7907 C   0  0  0  0  0  0  0  0  0  0  0  0
   29.3633   37.5119   20.4672 O   0  0  0  0  0  0  0  0  0  0  0  0
   34.6036   46.3656   18.0500 O   0  0  0  0  0  0  0  0  0  0  0  0
   34.8017   45.2545   17.2073 C   0  0  0  0  0  0  0  0  0  0  0  0
   36.2872   41.9791   18.1584 O   0  0  0  0  0  0  0  0  0  0  0  0
   34.1595   43.3747   18.7535 C   0  0  0  0  0  0  0  0  0  0  0  0
   36.2222   45.0559   16.8377 N   0  0  0  0  0  0  0  0  0  0  0  0
   33.8113   44.2112   17.5292 C   0  0  0  0  0  0  0  0  0  0  0  0
   32.2924   41.9041   18.6097 C   0  0  0  0  0  0  0  0  0  0  0  0
   38.1633   46.1434   13.8021 C   0  0  0  0  0  0  0  0  0  0  0  0
   31.4984   38.9711   19.0735 O   0  0  0  0  0  0  0  0  0  0  0  0
  1 28  1  0
  2  4  1  0
  2 39  1  0
  3 18  1  0
  3 38  2  0
  4 16  1  0
  4 41  2  0
  5 10  1  0
  6 16  1  0
  6 25  1  0
  6 32  1  0
  7 24  1  0
  7 30  2  0
  7 40  1  0
  8 25  1  0
  9 14  1  0
  9 15  1  0
 10 21  1  0
 10 35  1  0
 11 19  1  0
 12 31  1  0
 12 36  1  0
 12 39  1  0
 13 19  1  0
 14 17  1  0
 14 27  1  0
 15 26  1  0
 17 26  1  0
 18 19  1  0
 18 22  1  0
 19 28  1  0
 20 22  1  0
 20 28  1  0
 21 27  1  0
 21 37  1  0
 22 39  1  0
 23 40  1  0
 24 27  2  0
 29 40  1  0
 30 37  1  0
 31 35  1  0
 33 34  2  0
 34 37  1  0
 34 38  1  0
 36 38  1  0
M  END
$$$$
