
     RDKit          3D

 33 37  0  0  0  0  0  0  0  0999 V2000
   30.1852   42.3047   17.7664 C   0  0  0  0  0  0  0  0  0  0  0  0
   30.8115   41.1394   18.5893 C   0  0  0  0  0  0  0  0  0  0  0  0
   28.9126   39.7326   19.3023 C   0  0  0  0  0  0  0  0  0  0  0  0
   30.9424   38.8066   19.8298 O   0  0  0  0  0  0  0  0  0  0  0  0
   41.6116   46.5801   17.1164 N   0  0  0  0  0  0  0  0  0  0  0  0
   28.3539   43.7077   16.8958 C   0  0  0  0  0  0  0  0  0  0  0  0
   30.3144   39.9156   19.2070 C   0  0  0  0  0  0  0  0  0  0  0  0
   28.8148   42.7859   17.8380 C   0  0  0  0  0  0  0  0  0  0  0  0
   36.8363   45.3842   16.8643 C   0  0  0  0  0  0  0  0  0  0  0  0
   30.9182   42.9638   16.8953 N   0  0  0  0  0  0  0  0  0  0  0  0
   35.1331   41.9045   16.7461 C   0  0  0  0  0  0  0  0  0  0  0  0
   35.5888   43.8420   18.2927 N   0  0  0  0  0  0  0  0  0  0  0  0
   33.2936   43.9254   17.4890 C   0  0  0  0  0  0  0  0  0  0  0  0
   31.6532   44.7130   15.4649 N   0  0  0  0  0  0  0  0  0  0  0  0
   40.3375   47.2354   15.2649 O   0  0  0  0  0  0  0  0  0  0  0  0
   36.8351   44.5496   17.9596 C   0  0  0  0  0  0  0  0  0  0  0  0
   37.9752   46.0420   16.4302 C   0  0  0  0  0  0  0  0  0  0  0  0
   35.0083   42.4151   18.2086 C   0  0  0  0  0  0  0  0  0  0  0  0
   29.8874   37.9215   20.4594 C   0  0  0  0  0  0  0  0  0  0  0  0
   38.0648   44.3886   18.6497 C   0  0  0  0  0  0  0  0  0  0  0  0
   27.9652   42.4462   18.8336 O   0  0  0  0  0  0  0  0  0  0  0  0
   32.6285   41.2980   19.2832 S   0  0  0  0  0  0  0  0  0  0  0  0
   31.3706   45.4062   14.2656 C   0  0  0  0  0  0  0  0  0  0  0  0
   32.9978   44.5996   16.0627 C   0  0  0  0  0  0  0  0  0  0  0  0
   33.4493   42.6820   18.3853 C   0  0  0  0  0  0  0  0  0  0  0  0
   39.2286   45.9258   17.0467 C   0  0  0  0  0  0  0  0  0  0  0  0
   34.3768   44.7543   18.2101 C   0  0  0  0  0  0  0  0  0  0  0  0
   35.7086   41.4450   19.2391 C   0  0  0  0  0  0  0  0  0  0  0  0
   40.4552   46.6470   16.4654 C   0  0  0  0  0  0  0  0  0  0  0  0
   30.6393   43.9840   16.1074 C   0  0  0  0  0  0  0  0  0  0  0  0
   28.6033   38.5869   20.1786 C   0  0  0  0  0  0  0  0  0  0  0  0
   29.2854   44.3164   16.0253 C   0  0  0  0  0  0  0  0  0  0  0  0
   39.2604   45.0982   18.1707 C   0  0  0  0  0  0  0  0  0  0  0  0
  1  2  1  0
  1  8  2  0
  1 10  1  0
  2  7  1  0
  2 22  1  0
  3  7  1  0
  3 31  1  0
  4  7  1  0
  4 19  1  0
  5 29  1  0
  6  8  1  0
  6 32  2  0
  8 21  1  0
  9 16  1  0
  9 17  2  0
 10 30  2  0
 11 18  1  0
 12 16  1  0
 12 18  1  0
 12 27  1  0
 13 24  1  0
 13 25  1  0
 13 27  1  0
 14 23  1  0
 14 24  1  0
 14 30  1  0
 15 29  2  0
 16 20  2  0
 17 26  1  0
 18 25  1  0
 18 28  1  0
 19 31  1  0
 20 33  1  0
 22 25  1  0
 26 29  1  0
 26 33  2  0
 30 32  1  0
M  END
$$$$
