
     RDKit          3D

 16 16  0  0  0  0  0  0  0  0999 V2000
   24.7429   22.2162   19.6854 O   0  0  0  0  0  0  0  0  0  0  0  0
   23.1795   20.7402   22.5367 C   0  0  0  0  0  0  0  0  0  0  0  0
   22.7917   21.2218   18.7761 O   0  0  0  0  0  0  0  0  0  0  0  0
   19.5798   23.6177   22.4232 O   0  0  0  0  0  0  0  0  0  0  0  0
   21.1545   22.5725   20.5362 O   0  0  0  0  0  0  0  0  0  0  0  0
   21.0973   22.8356   19.1232 C   0  0  0  0  0  0  0  0  0  0  0  0
   23.2816   21.6492   21.4082 C   0  0  0  0  0  0  0  0  0  0  0  0
   24.3228   19.8282   19.9874 C   0  0  0  0  0  0  0  0  0  0  0  0
   23.7359   21.2555   19.9783 C   0  0  0  0  0  0  0  0  0  0  0  0
   23.1756   23.1712   17.3242 C   0  0  0  0  0  0  0  0  0  0  0  0
   21.7466   23.4580   21.3849 C   0  0  0  0  0  0  0  0  0  0  0  0
   24.3907   22.2896   16.8146 C   0  0  0  0  0  0  0  0  0  0  0  0
   23.0335   23.0193   21.7276 O   0  0  0  0  0  0  0  0  0  0  0  0
   20.2206   21.8242   18.5636 O   0  0  0  0  0  0  0  0  0  0  0  0
   20.9355   23.9854   22.4483 C   0  0  0  0  0  0  0  0  0  0  0  0
   22.3878   22.5822   18.4189 C   0  0  0  0  0  0  0  0  0  0  0  0
  1  9  1  0
  2  7  1  0
  3  9  1  0
  3 16  1  0
  4 15  1  0
  5  6  1  0
  5 11  1  0
  6 14  1  0
  6 16  1  0
  7  9  1  0
  7 13  1  0
  8  9  1  0
 10 12  1  0
 10 16  2  3
 11 13  1  0
 11 15  1  0
M  END
$$$$
