
     RDKit          3D

 27 28  0  0  0  0  0  0  0  0999 V2000
   19.7930   23.3024   22.6652 O   0  0  0  0  0  0  0  0  0  0  0  0
   24.8604   21.5541   21.1359 C   0  0  0  0  0  0  0  0  0  0  0  0
   22.1323   18.3669   21.0462 C   0  0  0  0  0  0  0  0  0  0  0  0
   25.9343   23.6555   21.3757 C   0  0  0  0  0  0  0  0  0  0  0  0
   20.6014   24.9286   20.9393 C   0  0  0  0  0  0  0  0  0  0  0  0
   21.8577   20.4854   20.0494 N   0  0  0  0  0  0  0  0  0  0  0  0
   21.9217   24.4172   20.6088 C   0  0  0  0  0  0  0  0  0  0  0  0
   22.4681   22.6287   16.4659 C   0  0  0  0  0  0  0  0  0  0  0  0
   24.3273   22.9414   23.0802 F   0  0  0  0  0  0  0  0  0  0  0  0
   18.4027   24.1988   21.1522 O   0  0  0  0  0  0  0  0  0  0  0  0
   22.9629   24.7562   21.3714 O   0  0  0  0  0  0  0  0  0  0  0  0
   22.1433   23.9708   19.2284 C   0  0  0  0  0  0  0  0  0  0  0  0
   21.2969   21.7570   19.9401 C   0  0  0  0  0  0  0  0  0  0  0  0
   26.3830   22.2799   19.4275 C   0  0  0  0  0  0  0  0  0  0  0  0
   22.9971   24.9408   17.0851 C   0  0  0  0  0  0  0  0  0  0  0  0
   25.0392   22.7128   21.8659 C   0  0  0  0  0  0  0  0  0  0  0  0
   20.8404   18.2119   20.4150 O   0  0  0  0  0  0  0  0  0  0  0  0
   22.5373   19.8294   21.0363 C   0  0  0  0  0  0  0  0  0  0  0  0
   19.9613   22.3890   20.4568 C   0  0  0  0  0  0  0  0  0  0  0  0
   22.6578   24.9478   18.4228 C   0  0  0  0  0  0  0  0  0  0  0  0
   19.6101   23.7325   21.3757 C   0  0  0  0  0  0  0  0  0  0  0  0
   26.5607   23.4595   20.1533 C   0  0  0  0  0  0  0  0  0  0  0  0
   21.8886   22.5911   18.8766 C   0  0  0  0  0  0  0  0  0  0  0  0
   22.0731   22.0346   17.6342 C   0  0  0  0  0  0  0  0  0  0  0  0
   22.8472   23.8976   16.2554 C   0  0  0  0  0  0  0  0  0  0  0  0
   25.4912   21.3274   19.9291 C   0  0  0  0  0  0  0  0  0  0  0  0
   22.4892   20.3876   22.3307 O   0  0  0  0  0  0  0  0  0  0  0  0
  1 21  1  0
  2 16  1  0
  2 26  2  0
  3 17  1  0
  3 18  1  0
  4 16  2  0
  4 22  1  0
  5  7  1  0
  5 21  1  0
  6 13  1  0
  6 18  1  0
  7 11  1  0
  7 12  1  0
  8 24  2  0
  8 25  1  0
  9 16  1  0
 10 21  1  0
 12 20  2  0
 12 23  1  0
 13 19  1  0
 13 23  1  0
 14 22  2  0
 14 26  1  0
 15 20  1  0
 15 25  2  0
 18 27  1  0
 19 21  1  0
 23 24  1  0
M  END
$$$$
