
     RDKit          3D

 20 20  0  0  0  0  0  0  0  0999 V2000
   22.7571   21.1504   19.7584 C   0  0  0  0  0  0  0  0  0  0  0  0
   22.7186   21.0255   21.0901 C   0  0  0  0  0  0  0  0  0  0  0  0
   18.7912   23.5854   20.5556 O   0  0  0  0  0  0  0  0  0  0  0  0
   24.2591   18.3370   19.7836 O   0  0  0  0  0  0  0  0  0  0  0  0
   22.6697   19.8958   19.0257 C   0  0  0  0  0  0  0  0  0  0  0  0
   19.6345   23.3442   22.7930 O   0  0  0  0  0  0  0  0  0  0  0  0
   19.9156   23.8462   21.4666 S   0  0  0  0  0  0  0  0  0  0  0  0
   25.7656   23.0551   17.0621 C   0  0  0  0  0  0  0  0  0  0  0  0
   24.6982   22.4225   17.6544 C   0  0  0  0  0  0  0  0  0  0  0  0
   24.9598   25.1835   17.9348 C   0  0  0  0  0  0  0  0  0  0  0  0
   23.3719   20.7659   22.2160 C   0  0  0  0  0  0  0  0  0  0  0  0
   23.8856   24.5373   18.4860 C   0  0  0  0  0  0  0  0  0  0  0  0
   22.2189   18.0819   20.7262 O   0  0  0  0  0  0  0  0  0  0  0  0
   21.7795   23.2206   19.7991 C   0  0  0  0  0  0  0  0  0  0  0  0
   23.0367   18.6778   19.8927 C   0  0  0  0  0  0  0  0  0  0  0  0
   23.7610   23.1299   18.4067 C   0  0  0  0  0  0  0  0  0  0  0  0
   21.1476   23.0441   20.8281 C   0  0  0  0  0  0  0  0  0  0  0  0
   25.9166   24.4559   17.2182 C   0  0  0  0  0  0  0  0  0  0  0  0
   22.7478   22.4739   19.1908 C   0  0  0  0  0  0  0  0  0  0  0  0
   20.3493   25.2267   21.5014 O   0  0  0  0  0  0  0  0  0  0  0  0
  1  2  1  0
  1  5  1  0
  1 19  1  0
  2 11  2  0
  3  7  1  0
  4 15  2  0
  5 15  1  0
  6  7  1  0
  7 17  1  0
  7 20  1  0
  8  9  2  0
  8 18  1  0
  9 16  1  0
 10 12  2  0
 10 18  1  0
 12 16  1  0
 13 15  1  0
 14 17  2  3
 14 19  1  0
 16 19  1  0
M  END
$$$$
