
     RDKit          3D

 11 11  0  0  0  0  0  0  0  0999 V2000
   -8.0130  -60.4938   15.5580 C   0  0  0  0  0  0  0  0  0  0  0  0
   -7.5067  -61.6822   17.5673 C   0  0  0  0  0  0  0  0  0  0  0  0
   -7.5879  -60.5373   16.8643 C   0  0  0  0  0  0  0  0  0  0  0  0
   -9.0906  -64.1709   18.7219 N   0  0  0  0  0  0  0  0  0  0  0  0
   -8.3206  -62.8953   15.6454 C   0  0  0  0  0  0  0  0  0  0  0  0
   -7.8607  -62.8447   16.9577 C   0  0  0  0  0  0  0  0  0  0  0  0
   -7.7054  -64.2447   17.8320 S   0  0  0  0  0  0  0  0  0  0  0  0
   -7.4488  -65.3579   16.8710 O   0  0  0  0  0  0  0  0  0  0  0  0
   -7.1263  -59.0036   17.6049 Cl  0  0  0  0  0  0  0  0  0  0  0  0
   -6.5308  -64.1554   18.7979 O   0  0  0  0  0  0  0  0  0  0  0  0
   -8.4118  -61.6690   14.9556 C   0  0  0  0  0  0  0  0  0  0  0  0
  1  3  1  0
  1 11  2  0
  2  3  2  0
  2  6  1  0
  3  9  1  0
  4  7  1  0
  5  6  2  0
  5 11  1  0
  6  7  1  0
  7  8  1  0
  7 10  1  0
M  END
$$$$
