
     RDKit          3D

 10  9  0  0  0  0  0  0  0  0999 V2000
   -7.7866  -64.2397   17.0573 C   0  0  0  0  0  0  0  0  0  0  0  0
   -8.7534  -62.0242   16.9699 N   0  0  0  0  0  0  0  0  0  0  0  0
   -6.1996  -64.5694   18.8164 N   0  0  0  0  0  0  0  0  0  0  0  0
   -7.6520  -65.5478   16.7129 O   0  0  0  0  0  0  0  0  0  0  0  0
   -7.2320  -61.6428   15.2605 O   0  0  0  0  0  0  0  0  0  0  0  0
   -5.7895  -62.7150   17.5130 N   0  0  0  0  0  0  0  0  0  0  0  0
   -6.7662  -63.6353   17.9353 C   0  0  0  0  0  0  0  0  0  0  0  0
   -7.9133  -61.2399   16.1896 C   0  0  0  0  0  0  0  0  0  0  0  0
   -8.0772  -59.7981   16.4004 C   0  0  0  0  0  0  0  0  0  0  0  0
   -8.8888  -63.4139   16.4681 C   0  0  0  0  0  0  0  0  0  0  0  0
  1  4  1  0
  1  7  1  0
  1 10  1  0
  2  8  1  0
  2 10  1  0
  3  7  2  0
  5  8  2  0
  6  7  1  0
  8  9  1  0
M  END
$$$$
