
     RDKit          3D

  6  5  0  0  0  0  0  0  0  0999 V2000
   -6.6261  -64.2031   18.9443 O   0  0  0  0  0  0  0  0  0  0  0  0
   -7.1181  -64.1026   17.7126 N   0  0  0  0  0  0  0  0  0  0  0  0
   -7.3430  -62.7070   17.2842 C   0  0  0  0  0  0  0  0  0  0  0  0
   -7.7719  -62.5125   15.8303 C   0  0  0  0  0  0  0  0  0  0  0  0
   -8.6855  -61.1534   15.7923 N   0  0  0  0  0  0  0  0  0  0  0  0
   -7.1545  -65.0901   16.9209 O   0  0  0  0  0  0  0  0  0  0  0  0
  1  2  1  0
  2  3  1  0
  2  6  1  0
  3  4  1  0
  4  5  1  0
M  END
$$$$
