
     RDKit          3D

 21 21  0  0  0  0  0  0  0  0999 V2000
    3.4915  -11.0420  -15.4264 O   0  0  0  0  0  0  0  0  0  0  0  0
    7.0935  -10.8884  -19.3549 O   0  0  0  0  0  0  0  0  0  0  0  0
    8.5887  -11.6860  -17.1730 C   0  0  0  0  0  0  0  0  0  0  0  0
    7.0607  -11.6205  -12.7189 O   0  0  0  0  0  0  0  0  0  0  0  0
    5.8964  -12.2651  -12.9140 C   0  0  0  0  0  0  0  0  0  0  0  0
    2.3875  -12.3435  -12.2992 O   0  0  0  0  0  0  0  0  0  0  0  0
    2.5016  -11.6014  -14.4816 C   0  0  0  0  0  0  0  0  0  0  0  0
    8.5279  -12.1397  -15.7221 C   0  0  0  0  0  0  0  0  0  0  0  0
    3.4360  -12.4322  -13.3551 C   0  0  0  0  0  0  0  0  0  0  0  0
    5.6955  -12.7291  -14.3387 C   0  0  0  0  0  0  0  0  0  0  0  0
    7.6547  -13.3247  -15.6556 O   0  0  0  0  0  0  0  0  0  0  0  0
    6.7209  -13.7416  -14.6308 C   0  0  0  0  0  0  0  0  0  0  0  0
    8.9971   -9.4703  -18.5522 O   0  0  0  0  0  0  0  0  0  0  0  0
    8.1229  -12.9441  -17.8663 O   0  0  0  0  0  0  0  0  0  0  0  0
    4.6736  -12.6153  -12.1424 C   0  0  0  0  0  0  0  0  0  0  0  0
    7.7737  -10.3774  -18.1120 P   0  0  0  0  0  0  0  0  0  0  0  0
    6.7387   -9.7073  -17.1694 O   0  0  0  0  0  0  0  0  0  0  0  0
    4.2898  -13.1981  -14.4386 C   0  0  0  0  0  0  0  0  0  0  0  0
    3.6345  -14.3012  -14.8385 O   0  0  0  0  0  0  0  0  0  0  0  0
    6.3277  -15.0739  -14.7882 O   0  0  0  0  0  0  0  0  0  0  0  0
    7.3011  -13.6713  -16.9892 C   0  0  0  0  0  0  0  0  0  0  0  0
  1  7  1  0
  2 16  1  0
  3  8  1  0
  3 14  1  0
  3 16  1  0
  4  5  1  0
  5 10  1  0
  5 15  1  0
  6  9  1  0
  7  9  1  0
  9 15  1  0
  9 18  1  0
 10 12  1  0
 10 18  1  0
 11 12  1  0
 11 21  1  0
 12 20  1  0
 13 16  1  0
 14 21  1  0
 16 17  1  0
 18 19  1  0
M  END
$$$$
