
     RDKit          3D

 26 27  0  0  0  0  0  0  0  0999 V2000
    4.9798  -14.2329  -13.4993 C   0  0  0  0  0  0  0  0  0  0  0  0
    7.2336  -11.4198  -15.0011 C   0  0  0  0  0  0  0  0  0  0  0  0
    4.0609  -11.3090  -13.1136 C   0  0  0  0  0  0  0  0  0  0  0  0
    8.2002  -10.9060  -14.2088 O   0  0  0  0  0  0  0  0  0  0  0  0
    8.3775  -11.6243  -17.5320 C   0  0  0  0  0  0  0  0  0  0  0  0
    9.1126  -10.9065  -16.6822 O   0  0  0  0  0  0  0  0  0  0  0  0
    7.1924  -12.9126  -11.7736 O   0  0  0  0  0  0  0  0  0  0  0  0
    8.0314  -14.1951  -13.5379 O   0  0  0  0  0  0  0  0  0  0  0  0
    7.1000  -13.3258  -13.0547 P   0  0  0  0  0  0  0  0  0  0  0  0
    7.5889  -12.0326  -19.8700 C   0  0  0  0  0  0  0  0  0  0  0  0
    3.3254  -12.5462  -13.0294 O   0  0  0  0  0  0  0  0  0  0  0  0
    7.1742  -13.5555  -18.8603 S   0  0  0  0  0  0  0  0  0  0  0  0
    5.4336  -11.5251  -13.4580 C   0  0  0  0  0  0  0  0  0  0  0  0
    8.5089   -9.6210  -18.9689 C   0  0  0  0  0  0  0  0  0  0  0  0
    5.7252  -12.9885  -13.6765 C   0  0  0  0  0  0  0  0  0  0  0  0
    7.9761  -10.9799  -18.8123 C   0  0  0  0  0  0  0  0  0  0  0  0
    8.8688   -9.3254  -20.1786 O   0  0  0  0  0  0  0  0  0  0  0  0
    3.2270  -10.4164  -15.1393 O   0  0  0  0  0  0  0  0  0  0  0  0
    8.4209   -8.7339  -18.0447 O   0  0  0  0  0  0  0  0  0  0  0  0
    5.1978  -15.4560  -14.0658 O   0  0  0  0  0  0  0  0  0  0  0  0
    3.5046  -13.9121  -13.4699 C   0  0  0  0  0  0  0  0  0  0  0  0
    3.4375  -10.1299  -13.8075 C   0  0  0  0  0  0  0  0  0  0  0  0
    2.7852  -15.0365  -13.2969 O   0  0  0  0  0  0  0  0  0  0  0  0
    5.9646  -10.7197  -14.5986 O   0  0  0  0  0  0  0  0  0  0  0  0
    7.6359  -12.9207  -17.2034 C   0  0  0  0  0  0  0  0  0  0  0  0
    7.0449  -12.6121  -15.7923 O   0  0  0  0  0  0  0  0  0  0  0  0
  1 15  1  0
  1 20  1  0
  1 21  1  0
  2  4  2  0
  2 24  1  0
  2 26  1  0
  3 11  1  0
  3 13  1  0
  3 22  1  0
  5  6  1  0
  5 16  1  0
  5 25  1  0
  7  9  1  0
  8  9  1  0
  9 15  1  0
 10 12  1  0
 10 16  1  0
 11 21  1  0
 12 25  1  0
 13 15  1  0
 13 24  1  0
 14 16  1  0
 14 17  2  0
 14 19  1  0
 18 22  1  0
 21 23  2  0
 25 26  1  0
M  END
$$$$
