
     RDKit          3D

 15 16  0  0  0  0  0  0  0  0999 V2000
    3.2771  -12.4805  -11.6993 C   0  0  0  0  0  0  0  0  0  0  0  0
    5.7952  -13.1180  -15.0920 C   0  0  0  0  0  0  0  0  0  0  0  0
    4.2372  -12.5870  -12.7110 C   0  0  0  0  0  0  0  0  0  0  0  0
    2.2966  -11.4480  -11.7976 C   0  0  0  0  0  0  0  0  0  0  0  0
    6.3906  -11.0549  -16.6742 N   0  0  0  0  0  0  0  0  0  0  0  0
    3.3093  -10.6200  -13.7769 C   0  0  0  0  0  0  0  0  0  0  0  0
    4.2621  -11.6865  -13.7867 C   0  0  0  0  0  0  0  0  0  0  0  0
    7.0410  -14.5719  -16.5008 O   0  0  0  0  0  0  0  0  0  0  0  0
    2.3227  -10.4954  -12.8386 N   0  0  0  0  0  0  0  0  0  0  0  0
    7.4634  -12.4205  -18.1090 O   0  0  0  0  0  0  0  0  0  0  0  0
    6.5371  -13.3065  -16.2027 C   0  0  0  0  0  0  0  0  0  0  0  0
    6.7773  -12.2246  -17.0200 C   0  0  0  0  0  0  0  0  0  0  0  0
    5.2310   -9.5668  -15.3705 O   0  0  0  0  0  0  0  0  0  0  0  0
    5.5376  -10.7746  -15.6160 C   0  0  0  0  0  0  0  0  0  0  0  0
    5.2238  -11.8828  -14.8382 C   0  0  0  0  0  0  0  0  0  0  0  0
  1  3  2  0
  1  4  1  0
  2 11  2  0
  2 15  1  0
  3  7  1  0
  4  9  1  0
  5 12  1  0
  5 14  1  0
  6  7  1  0
  6  9  2  0
  7 15  1  0
  8 11  1  0
 10 12  2  0
 11 12  1  0
 13 14  2  0
 14 15  1  0
M  END
$$$$
