
     RDKit          3D

 10  9  0  0  0  0  0  0  0  0999 V2000
    4.7170  -12.6542  -14.5652 C   0  0  0  0  0  0  0  0  0  0  0  0
    5.6739  -13.7959  -14.6480 C   0  0  0  0  0  0  0  0  0  0  0  0
    5.6863  -10.5717  -14.0654 O   0  0  0  0  0  0  0  0  0  0  0  0
    5.2626  -11.3542  -15.0730 C   0  0  0  0  0  0  0  0  0  0  0  0
    7.3583  -12.4631  -17.6877 C   0  0  0  0  0  0  0  0  0  0  0  0
    6.7844  -13.4196  -15.4799 N   0  0  0  0  0  0  0  0  0  0  0  0
    7.2963  -11.4385  -18.4180 O   0  0  0  0  0  0  0  0  0  0  0  0
    7.9982  -13.4632  -17.9357 O   0  0  0  0  0  0  0  0  0  0  0  0
    6.4180  -12.4518  -16.5057 C   0  0  0  0  0  0  0  0  0  0  0  0
    4.6799  -10.6835  -16.0452 O   0  0  0  0  0  0  0  0  0  0  0  0
  1  2  1  0
  1  4  1  0
  2  6  1  0
  3  4  2  0
  4 10  1  0
  5  7  2  0
  5  8  1  0
  5  9  1  0
  6  9  1  0
M  END
$$$$
