
     RDKit          3D

 31 32  0  0  0  0  0  0  0  0999 V2000
    9.0700   -3.1363    0.6500 C   0  0  0  0  0  0  0  0  0  0  0  0
    4.3924   -2.3102    1.9178 C   0  0  0  0  0  0  0  0  0  0  0  0
    7.6609    0.4255    2.6275 C   0  0  0  0  0  0  0  0  0  0  0  0
    5.6590    4.4186    4.2408 O   0  0  0  0  0  0  0  0  0  0  0  0
    7.4640   -0.8635    3.1909 C   0  0  0  0  0  0  0  0  0  0  0  0
    7.2522    1.7162    3.2073 C   0  0  0  0  0  0  0  0  0  0  0  0
    8.3319    0.4669    1.4555 C   0  0  0  0  0  0  0  0  0  0  0  0
    6.2303    2.7341    5.6031 O   0  0  0  0  0  0  0  0  0  0  0  0
    8.3089   -4.2949    3.3547 O   0  0  0  0  0  0  0  0  0  0  0  0
    7.8451   -2.0317    2.4967 C   0  0  0  0  0  0  0  0  0  0  0  0
    9.6192   -1.2211   -1.3690 O   0  0  0  0  0  0  0  0  0  0  0  0
    1.5341    1.5015    0.0490 C   0  0  0  0  0  0  0  0  0  0  0  0
    8.5741   -1.8920    1.3000 C   0  0  0  0  0  0  0  0  0  0  0  0
    5.8625    3.1894    4.4587 C   0  0  0  0  0  0  0  0  0  0  0  0
    2.2568    2.8356   -0.0395 C   0  0  0  0  0  0  0  0  0  0  0  0
    7.4604   -3.3765    3.0223 C   0  0  0  0  0  0  0  0  0  0  0  0
    9.4539   -0.2572   -0.5657 C   0  0  0  0  0  0  0  0  0  0  0  0
    9.7764    0.9152   -0.8360 O   0  0  0  0  0  0  0  0  0  0  0  0
    0.3131    1.5601   -0.5919 N   0  0  0  0  0  0  0  0  0  0  0  0
    8.0364    2.7581    2.6853 O   0  0  0  0  0  0  0  0  0  0  0  0
    4.7505   -3.1900    3.0941 C   0  0  0  0  0  0  0  0  0  0  0  0
    2.3821    0.3156    0.2761 C   0  0  0  0  0  0  0  0  0  0  0  0
    4.2095    3.6337    2.2661 C   0  0  0  0  0  0  0  0  0  0  0  0
    1.9314   -0.8872    0.8287 N   0  0  0  0  0  0  0  0  0  0  0  0
    3.1227    3.2408    1.1983 C   0  0  0  0  0  0  0  0  0  0  0  0
    2.8445   -1.9057    1.5273 C   0  0  0  0  0  0  0  0  0  0  0  0
    3.6535    0.3423    0.1047 O   0  0  0  0  0  0  0  0  0  0  0  0
    6.1104   -3.6731    3.2011 O   0  0  0  0  0  0  0  0  0  0  0  0
    5.8371    2.0789    3.3068 C   0  0  0  0  0  0  0  0  0  0  0  0
    5.3777    2.7543    2.0748 N   0  0  0  0  0  0  0  0  0  0  0  0
    8.7887   -0.5773    0.7279 C   0  0  0  0  0  0  0  0  0  0  0  0
  1 13  1  0
  2 21  2  3
  2 26  1  0
  3  5  1  0
  3  6  1  0
  3  7  2  0
  4 14  2  0
  5 10  2  0
  6 20  1  0
  6 29  1  0
  7 31  1  0
  8 14  1  0
  9 16  2  0
 10 13  1  0
 10 16  1  0
 11 17  2  0
 12 15  1  0
 12 19  1  0
 12 22  1  0
 13 31  2  0
 14 29  1  0
 15 25  1  0
 16 28  1  0
 17 18  1  0
 17 31  1  0
 21 28  1  0
 22 24  1  0
 22 27  2  0
 23 25  1  0
 23 30  1  0
 24 26  2  3
 29 30  1  0
M  END
$$$$
