
     RDKit          3D

 26 28  0  0  0  0  0  0  0  0999 V2000
    2.3785    2.0669    0.4216 C   0  0  0  0  0  0  0  0  0  0  0  0
    5.9115    3.5486    2.4812 O   0  0  0  0  0  0  0  0  0  0  0  0
    5.2900   -0.9674    0.9164 C   0  0  0  0  0  0  0  0  0  0  0  0
    0.6852   -2.6912    2.5411 O   0  0  0  0  0  0  0  0  0  0  0  0
    2.8608   -0.9338    1.2430 C   0  0  0  0  0  0  0  0  0  0  0  0
    2.0208   -2.8017    2.9011 C   0  0  0  0  0  0  0  0  0  0  0  0
    3.6277    3.5798    1.9924 C   0  0  0  0  0  0  0  0  0  0  0  0
    7.5807   -2.0423    1.5578 C   0  0  0  0  0  0  0  0  0  0  0  0
    8.7359    2.0916    2.5980 C   0  0  0  0  0  0  0  0  0  0  0  0
    4.0347   -0.1639    1.2781 C   0  0  0  0  0  0  0  0  0  0  0  0
    4.8690    4.1760    2.2568 C   0  0  0  0  0  0  0  0  0  0  0  0
    8.0487    0.6516    2.4866 C   0  0  0  0  0  0  0  0  0  0  0  0
    0.5394    1.0673   -0.6370 F   0  0  0  0  0  0  0  0  0  0  0  0
    2.0850    3.1836   -0.2589 N   0  0  0  0  0  0  0  0  0  0  0  0
    3.4653    2.2690    1.3569 C   0  0  0  0  0  0  0  0  0  0  0  0
    4.0316   -2.0728    3.0067 O   0  0  0  0  0  0  0  0  0  0  0  0
    9.0057    0.1470    1.2615 C   0  0  0  0  0  0  0  0  0  0  0  0
    6.2244   -1.4231    2.0124 C   0  0  0  0  0  0  0  0  0  0  0  0
    1.7974   -0.4134    0.5773 C   0  0  0  0  0  0  0  0  0  0  0  0
    5.3877   -2.4874    2.8188 C   0  0  0  0  0  0  0  0  0  0  0  0
    1.6374    0.8889    0.1586 C   0  0  0  0  0  0  0  0  0  0  0  0
    4.1752    1.1302    1.6271 C   0  0  0  0  0  0  0  0  0  0  0  0
    8.3532   -1.1279    0.5442 C   0  0  0  0  0  0  0  0  0  0  0  0
    2.9733   -2.2640    1.9575 C   0  0  0  0  0  0  0  0  0  0  0  0
    9.5871    1.8595    1.2765 C   0  0  0  0  0  0  0  0  0  0  0  0
    4.8447    5.4173    2.1557 O   0  0  0  0  0  0  0  0  0  0  0  0
  1 14  1  0
  1 15  1  0
  1 21  2  0
  2 11  2  0
  3 10  1  0
  3 18  1  0
  4  6  1  0
  5 10  1  0
  5 19  2  0
  5 24  1  0
  6 24  1  0
  7 11  1  0
  7 15  1  0
  8 18  1  0
  8 23  1  0
  9 12  1  0
  9 25  1  0
 10 22  1  0
 11 26  1  0
 12 17  1  0
 13 21  1  0
 15 22  2  0
 16 20  1  0
 16 24  1  0
 17 23  1  0
 17 25  1  0
 18 20  1  0
 19 21  1  0
M  END
$$$$
