
     RDKit          3D

 28 30  0  0  0  0  0  0  0  0999 V2000
    4.2172   -2.2587    2.4332 C   0  0  0  0  0  0  0  0  0  0  0  0
    5.4597    1.3285    2.5044 C   0  0  0  0  0  0  0  0  0  0  0  0
   -0.7420    1.2477   -0.3525 O   0  0  0  0  0  0  0  0  0  0  0  0
    1.6108    1.1670   -0.4185 C   0  0  0  0  0  0  0  0  0  0  0  0
    4.3720    2.4902    2.7046 C   0  0  0  0  0  0  0  0  0  0  0  0
    2.8475    3.0998    0.2537 O   0  0  0  0  0  0  0  0  0  0  0  0
    9.5428   -3.8239    1.3687 C   0  0  0  0  0  0  0  0  0  0  0  0
    0.3419    1.8718   -0.5883 C   0  0  0  0  0  0  0  0  0  0  0  0
    3.8346    1.0276    0.5659 C   0  0  0  0  0  0  0  0  0  0  0  0
    5.8343   -0.2419    2.5212 C   0  0  0  0  0  0  0  0  0  0  0  0
    6.6810    2.3732    3.0863 C   0  0  0  0  0  0  0  0  0  0  0  0
    0.3196    3.2665   -0.5568 N   0  0  0  0  0  0  0  0  0  0  0  0
    5.2797    4.3905    3.9377 O   0  0  0  0  0  0  0  0  0  0  0  0
    4.5674   -1.0042    2.0289 C   0  0  0  0  0  0  0  0  0  0  0  0
    6.1387   -0.4697    3.9559 O   0  0  0  0  0  0  0  0  0  0  0  0
    3.6658   -0.3089    1.1706 C   0  0  0  0  0  0  0  0  0  0  0  0
    1.6035   -0.2735   -0.2307 C   0  0  0  0  0  0  0  0  0  0  0  0
    7.5107   -2.2453    1.6452 C   0  0  0  0  0  0  0  0  0  0  0  0
    7.0173   -0.8260    1.7007 N   0  0  0  0  0  0  0  0  0  0  0  0
    8.7558   -2.5836    1.0428 C   0  0  0  0  0  0  0  0  0  0  0  0
    2.4719   -0.9226    0.7645 C   0  0  0  0  0  0  0  0  0  0  0  0
    7.4804    2.4249    1.9102 O   0  0  0  0  0  0  0  0  0  0  0  0
    9.0390   -2.1286   -0.3576 C   0  0  0  0  0  0  0  0  0  0  0  0
    5.4822    3.4537    3.0972 C   0  0  0  0  0  0  0  0  0  0  0  0
    3.0584   -2.8550    2.0790 N   0  0  0  0  0  0  0  0  0  0  0  0
    2.1678   -2.1783    1.2735 C   0  0  0  0  0  0  0  0  0  0  0  0
    7.5843    2.9129    4.1176 O   0  0  0  0  0  0  0  0  0  0  0  0
    2.7845    1.8254    0.1867 C   0  0  0  0  0  0  0  0  0  0  0  0
  1 14  2  0
  1 25  1  0
  2  5  1  0
  2 10  1  0
  2 11  1  0
  3  8  2  0
  4  8  1  0
  4 17  1  0
  4 28  1  0
  5 24  1  0
  6 28  2  0
  7 20  1  0
  8 12  1  0
  9 16  1  0
  9 28  1  0
 10 14  1  0
 10 15  1  0
 10 19  1  0
 11 22  1  0
 11 24  1  0
 11 27  1  0
 13 24  2  0
 14 16  1  0
 16 21  2  0
 17 21  1  0
 18 19  2  3
 18 20  1  0
 20 23  1  0
 21 26  1  0
 25 26  2  0
M  END
$$$$
