
     RDKit          3D

 11 11  0  0  0  0  0  0  0  0999 V2000
   12.8608   33.3646   14.4897 C   0  0  0  0  0  0  0  0  0  0  0  0
   12.2438   35.3284   16.3330 C   0  0  0  0  0  0  0  0  0  0  0  0
   13.1552   35.5957   15.3164 C   0  0  0  0  0  0  0  0  0  0  0  0
   15.4035   34.6710   13.1546 O   0  0  0  0  0  0  0  0  0  0  0  0
   13.4195   34.6327   14.3597 C   0  0  0  0  0  0  0  0  0  0  0  0
   13.5634   35.6235   12.2189 O   0  0  0  0  0  0  0  0  0  0  0  0
   11.5912   34.1002   16.4209 C   0  0  0  0  0  0  0  0  0  0  0  0
    9.4528   33.4873   17.2246 O   0  0  0  0  0  0  0  0  0  0  0  0
   11.9445   33.1083   15.5183 C   0  0  0  0  0  0  0  0  0  0  0  0
   10.6337   33.8731   17.4789 C   0  0  0  0  0  0  0  0  0  0  0  0
   14.2288   35.0072   13.1749 C   0  0  0  0  0  0  0  0  0  0  0  0
  1  5  1  0
  1  9  1  0
  2  3  1  0
  2  7  1  0
  3  5  2  0
  4 11  2  0
  5 11  1  0
  6 11  1  0
  7  9  2  0
  7 10  1  0
  8 10  2  0
M  END
$$$$
