
     RDKit          3D

 15 17  0  0  0  0  0  0  0  0999 V2000
   13.4730   33.3622   14.0887 N   0  0  0  0  0  0  0  0  0  0  0  0
   11.8580   31.7547   15.2600 C   0  0  0  0  0  0  0  0  0  0  0  0
   14.5225   35.4696   13.5478 N   0  0  0  0  0  0  0  0  0  0  0  0
   14.9125   35.1110   11.1087 C   0  0  0  0  0  0  0  0  0  0  0  0
   11.5179   35.4228   17.0786 N   0  0  0  0  0  0  0  0  0  0  0  0
   10.6003   33.0715   16.9633 N   0  0  0  0  0  0  0  0  0  0  0  0
   10.8234   31.8572   16.2769 C   0  0  0  0  0  0  0  0  0  0  0  0
   12.4893   36.0630   16.3220 C   0  0  0  0  0  0  0  0  0  0  0  0
   13.0030   35.1886   15.3750 N   0  0  0  0  0  0  0  0  0  0  0  0
   13.7461   34.6860   14.3218 C   0  0  0  0  0  0  0  0  0  0  0  0
   12.2735   34.0471   15.6759 C   0  0  0  0  0  0  0  0  0  0  0  0
   15.3742   35.2453   12.4861 C   0  0  0  0  0  0  0  0  0  0  0  0
   16.8584   35.3648   12.6480 C   0  0  0  0  0  0  0  0  0  0  0  0
   12.5534   32.9664   14.9665 C   0  0  0  0  0  0  0  0  0  0  0  0
   11.3721   34.1889   16.6380 C   0  0  0  0  0  0  0  0  0  0  0  0
  1 10  1  0
  1 14  1  0
  2  7  2  0
  2 14  1  0
  3 10  2  3
  3 12  1  0
  4 12  1  0
  5  8  1  0
  5 15  1  0
  6  7  1  0
  6 15  2  0
  8  9  1  0
  9 10  1  0
  9 11  1  0
 11 14  2  0
 11 15  1  0
 12 13  1  0
M  END
$$$$
