
     RDKit          3D

 20 22  0  0  0  0  0  0  0  0999 V2000
  -17.1764   14.9974  -28.0204 C   0  0  0  0  0  0  0  0  0  0  0  0
  -18.2642   15.6289  -28.8170 N   0  0  0  0  0  0  0  0  0  0  0  0
  -17.6464   16.7608  -29.6602 C   0  0  0  0  0  0  0  0  0  0  0  0
  -16.2281   17.0989  -29.0842 C   0  0  0  0  0  0  0  0  0  0  0  0
  -15.6722   15.6202  -28.6744 C   0  0  0  0  0  0  0  0  0  0  0  0
  -17.8343   16.8884  -30.9626 O   0  0  0  0  0  0  0  0  0  0  0  0
  -21.6219   15.8036  -27.2664 C   0  0  0  0  0  0  0  0  0  0  0  0
  -24.0737   14.0606  -27.4786 O   0  0  0  0  0  0  0  0  0  0  0  0
  -21.8228   16.1310  -29.7528 C   0  0  0  0  0  0  0  0  0  0  0  0
  -19.5930   15.8061  -28.6130 C   0  0  0  0  0  0  0  0  0  0  0  0
  -23.8632   16.1913  -28.3825 C   0  0  0  0  0  0  0  0  0  0  0  0
  -14.7074   15.5199  -27.4936 C   0  0  0  0  0  0  0  0  0  0  0  0
  -15.3060   14.5890  -26.4525 C   0  0  0  0  0  0  0  0  0  0  0  0
  -25.7371   15.5978  -27.0690 O   0  0  0  0  0  0  0  0  0  0  0  0
  -15.5347   15.8709  -26.3647 C   0  0  0  0  0  0  0  0  0  0  0  0
  -24.6393   15.1929  -27.6370 C   0  0  0  0  0  0  0  0  0  0  0  0
  -20.4287   16.1663  -29.7969 C   0  0  0  0  0  0  0  0  0  0  0  0
  -20.1815   15.7319  -27.3445 C   0  0  0  0  0  0  0  0  0  0  0  0
  -22.4426   15.9109  -28.3703 C   0  0  0  0  0  0  0  0  0  0  0  0
  -16.5461   13.8263  -27.2942 C   0  0  0  0  0  0  0  0  0  0  0  0
  1  2  1  0
  1  5  1  0
  1 20  1  0
  2  3  1  0
  2 10  1  0
  3  4  1  0
  3  6  2  0
  4  5  1  0
  5 12  1  0
  7 18  2  0
  7 19  1  0
  8 16  2  0
  9 17  1  0
  9 19  2  0
 10 17  2  0
 10 18  1  0
 11 16  1  0
 11 19  1  0
 12 15  1  0
 13 15  1  0
 13 20  1  0
 14 16  1  0
M  END
$$$$
