
     RDKit          3D

 24 27  0  0  0  0  0  0  0  0999 V2000
  -19.6469   16.8824  -25.7457 N   0  0  0  0  0  0  0  0  0  0  0  0
  -21.8740   20.9303  -26.3857 C   0  0  0  0  0  0  0  0  0  0  0  0
  -17.8820   14.6298  -27.7969 C   0  0  0  0  0  0  0  0  0  0  0  0
  -15.1021   15.6472  -26.2359 O   0  0  0  0  0  0  0  0  0  0  0  0
  -16.3042   15.5442  -26.4738 C   0  0  0  0  0  0  0  0  0  0  0  0
  -21.7971   17.1897  -28.4596 C   0  0  0  0  0  0  0  0  0  0  0  0
  -20.9276   17.4852  -25.5199 N   0  0  0  0  0  0  0  0  0  0  0  0
  -18.8500   15.2275  -27.6694 C   0  0  0  0  0  0  0  0  0  0  0  0
  -21.7613   18.5303  -27.7021 C   0  0  0  0  0  0  0  0  0  0  0  0
  -19.8501   14.2778  -33.4738 C   0  0  0  0  0  0  0  0  0  0  0  0
  -18.2755   14.4081  -30.4311 C   0  0  0  0  0  0  0  0  0  0  0  0
  -16.7160   14.4248  -27.3084 C   0  0  0  0  0  0  0  0  0  0  0  0
  -19.7975   15.5312  -28.6896 N   0  0  0  0  0  0  0  0  0  0  0  0
  -21.9015   19.7016  -28.4429 C   0  0  0  0  0  0  0  0  0  0  0  0
  -21.6303   19.7810  -25.6877 N   0  0  0  0  0  0  0  0  0  0  0  0
  -19.3532   15.5732  -30.1018 C   0  0  0  0  0  0  0  0  0  0  0  0
  -21.9733   20.9262  -27.7762 C   0  0  0  0  0  0  0  0  0  0  0  0
  -20.2571   15.3896  -31.3700 C   0  0  0  0  0  0  0  0  0  0  0  0
  -19.8217   14.2413  -32.0581 N   0  0  0  0  0  0  0  0  0  0  0  0
  -21.1065   15.7405  -28.3880 C   0  0  0  0  0  0  0  0  0  0  0  0
  -18.6435   13.5196  -31.7413 C   0  0  0  0  0  0  0  0  0  0  0  0
  -17.2693   16.4891  -25.9724 C   0  0  0  0  0  0  0  0  0  0  0  0
  -18.6101   16.3613  -26.5245 C   0  0  0  0  0  0  0  0  0  0  0  0
  -21.4953   18.6237  -26.2830 C   0  0  0  0  0  0  0  0  0  0  0  0
  1  7  1  0
  1 23  1  0
  2 15  1  0
  2 17  2  0
  3  8  1  0
  3 12  1  0
  4  5  2  0
  5 12  1  0
  5 22  1  0
  6  9  1  0
  6 20  1  0
  7 24  1  0
  8 13  1  0
  8 23  1  0
  9 14  2  0
  9 24  1  0
 10 19  1  0
 11 16  1  0
 11 21  1  0
 13 16  1  0
 13 20  1  0
 14 17  1  0
 15 24  2  0
 16 18  1  0
 18 19  1  0
 19 21  1  0
 22 23  1  0
M  END
$$$$
