
     RDKit          3D

 27 28  0  0  0  0  0  0  0  0999 V2000
  -18.7941   15.9370  -26.9964 C   0  0  0  0  0  0  0  0  0  0  0  0
  -20.1563   17.5446  -31.2703 C   0  0  0  0  0  0  0  0  0  0  0  0
  -19.8127   17.1388  -32.8147 C   0  0  0  0  0  0  0  0  0  0  0  0
  -15.1668   15.9444  -30.6849 O   0  0  0  0  0  0  0  0  0  0  0  0
  -13.4494   13.8127  -28.3586 O   0  0  0  0  0  0  0  0  0  0  0  0
  -16.6329   13.9429  -27.3423 C   0  0  0  0  0  0  0  0  0  0  0  0
  -21.5333   16.3222  -27.0643 C   0  0  0  0  0  0  0  0  0  0  0  0
  -20.9245   15.2644  -31.5344 C   0  0  0  0  0  0  0  0  0  0  0  0
  -20.8438   15.8307  -28.0666 C   0  0  0  0  0  0  0  0  0  0  0  0
  -20.8063   16.6630  -25.9584 C   0  0  0  0  0  0  0  0  0  0  0  0
  -24.1824   17.5580  -27.6660 C   0  0  0  0  0  0  0  0  0  0  0  0
  -20.1148   14.4812  -32.6421 C   0  0  0  0  0  0  0  0  0  0  0  0
  -17.7193   16.0702  -30.5494 C   0  0  0  0  0  0  0  0  0  0  0  0
  -19.4771   16.6840  -26.0770 C   0  0  0  0  0  0  0  0  0  0  0  0
  -17.3994   17.5100  -31.0060 C   0  0  0  0  0  0  0  0  0  0  0  0
  -22.9826   16.7582  -27.5413 C   0  0  0  0  0  0  0  0  0  0  0  0
  -16.7508   14.5238  -28.7335 C   0  0  0  0  0  0  0  0  0  0  0  0
  -19.5262   15.6871  -33.5782 C   0  0  0  0  0  0  0  0  0  0  0  0
  -14.2880   13.7656  -26.0755 C   0  0  0  0  0  0  0  0  0  0  0  0
  -16.4685   15.2980  -30.2101 C   0  0  0  0  0  0  0  0  0  0  0  0
  -14.2407   13.3947  -27.2838 C   0  0  0  0  0  0  0  0  0  0  0  0
  -23.5256   14.6181  -29.1289 C   0  0  0  0  0  0  0  0  0  0  0  0
  -20.2609   15.9443  -30.5798 C   0  0  0  0  0  0  0  0  0  0  0  0
  -23.2932   15.9580  -28.6865 O   0  0  0  0  0  0  0  0  0  0  0  0
  -18.9753   15.4512  -29.6851 C   0  0  0  0  0  0  0  0  0  0  0  0
  -19.5372   15.6055  -28.1690 C   0  0  0  0  0  0  0  0  0  0  0  0
  -15.6662   12.7511  -27.5139 C   0  0  0  0  0  0  0  0  0  0  0  0
  1 14  1  0
  1 26  1  0
  2  3  1  0
  2 23  1  0
  3 18  1  0
  4 20  1  0
  5 21  1  0
  6 17  1  0
  6 27  1  0
  7  9  2  0
  7 10  1  0
  7 16  1  0
  8 12  1  0
  8 23  1  0
  9 26  1  0
 10 14  1  0
 11 16  1  0
 12 18  1  0
 13 15  1  0
 13 20  1  0
 13 25  1  0
 16 24  1  0
 17 20  1  0
 19 21  2  0
 21 27  1  0
 22 24  1  0
 23 25  1  0
 25 26  1  0
M  END
$$$$
