
     RDKit          3D

 25 27  0  0  0  0  0  0  0  0999 V2000
  -15.8859   15.0573  -26.7994 C   0  0  0  0  0  0  0  0  0  0  0  0
  -13.5371   14.7284  -27.9125 C   0  0  0  0  0  0  0  0  0  0  0  0
  -19.9602   15.4399  -32.0519 C   0  0  0  0  0  0  0  0  0  0  0  0
  -16.5488   16.4878  -25.1061 C   0  0  0  0  0  0  0  0  0  0  0  0
  -19.5124   15.4322  -27.8884 C   0  0  0  0  0  0  0  0  0  0  0  0
  -16.9856   16.0145  -26.3045 C   0  0  0  0  0  0  0  0  0  0  0  0
  -14.8239   15.4244  -28.0432 C   0  0  0  0  0  0  0  0  0  0  0  0
  -15.4432   14.7722  -29.4904 C   0  0  0  0  0  0  0  0  0  0  0  0
  -17.4249   17.5804  -31.6528 O   0  0  0  0  0  0  0  0  0  0  0  0
  -19.9863   17.7915  -31.3306 C   0  0  0  0  0  0  0  0  0  0  0  0
  -18.7211   17.5830  -32.2065 C   0  0  0  0  0  0  0  0  0  0  0  0
  -19.0842   14.1873  -31.8170 C   0  0  0  0  0  0  0  0  0  0  0  0
  -19.1577   17.6890  -28.8166 O   0  0  0  0  0  0  0  0  0  0  0  0
  -16.1274   12.7964  -26.7456 C   0  0  0  0  0  0  0  0  0  0  0  0
  -14.4322   16.9490  -28.4713 C   0  0  0  0  0  0  0  0  0  0  0  0
  -18.4525   17.7792  -27.5082 C   0  0  0  0  0  0  0  0  0  0  0  0
  -21.4518   17.1653  -28.4882 O   0  0  0  0  0  0  0  0  0  0  0  0
  -16.2580   13.4230  -28.8884 C   0  0  0  0  0  0  0  0  0  0  0  0
  -19.5426   16.7190  -25.7412 C   0  0  0  0  0  0  0  0  0  0  0  0
  -20.2040   16.4407  -28.9891 C   0  0  0  0  0  0  0  0  0  0  0  0
  -20.4026   16.2649  -30.7360 C   0  0  0  0  0  0  0  0  0  0  0  0
  -18.5116   16.2463  -26.7186 C   0  0  0  0  0  0  0  0  0  0  0  0
  -19.0534   16.3733  -32.9766 C   0  0  0  0  0  0  0  0  0  0  0  0
  -21.6766   15.7861  -30.6848 O   0  0  0  0  0  0  0  0  0  0  0  0
  -16.7098   13.7768  -27.2684 C   0  0  0  0  0  0  0  0  0  0  0  0
  1  6  1  0
  1  7  1  0
  1 25  1  0
  2  7  1  0
  3 12  1  0
  3 21  1  0
  3 23  1  0
  4  6  2  0
  5 20  1  0
  5 22  1  0
  6 22  1  0
  7  8  1  0
  7 15  1  0
  8 18  1  0
  9 11  1  0
 10 11  1  0
 10 21  1  0
 11 23  1  0
 13 16  1  0
 13 20  1  0
 14 25  1  0
 16 22  1  0
 17 20  1  0
 18 25  1  0
 19 22  1  0
 20 21  1  0
 21 24  1  0
M  END
$$$$
