
     RDKit          3D

 22 23  0  0  0  0  0  0  0  0999 V2000
  -19.1310   16.6845  -31.4433 C   0  0  0  0  0  0  0  0  0  0  0  0
  -21.0666   16.0296  -29.5820 C   0  0  0  0  0  0  0  0  0  0  0  0
  -21.4759   16.8456  -26.6713 C   0  0  0  0  0  0  0  0  0  0  0  0
  -19.7093   15.7395  -30.3590 C   0  0  0  0  0  0  0  0  0  0  0  0
  -18.6186   15.1309  -29.3930 C   0  0  0  0  0  0  0  0  0  0  0  0
  -14.9727   13.3321  -26.7679 C   0  0  0  0  0  0  0  0  0  0  0  0
  -21.9311   16.5019  -30.6785 C   0  0  0  0  0  0  0  0  0  0  0  0
  -13.2514   14.6376  -27.7710 C   0  0  0  0  0  0  0  0  0  0  0  0
  -19.8177   17.7909  -32.0158 C   0  0  0  0  0  0  0  0  0  0  0  0
  -16.7065   15.5073  -26.6532 N   0  0  0  0  0  0  0  0  0  0  0  0
  -23.2049   17.2651  -30.1230 C   0  0  0  0  0  0  0  0  0  0  0  0
  -16.4102   13.8095  -28.3814 C   0  0  0  0  0  0  0  0  0  0  0  0
  -18.6029   15.0796  -27.9228 N   0  0  0  0  0  0  0  0  0  0  0  0
  -21.8563   16.1284  -28.1000 C   0  0  0  0  0  0  0  0  0  0  0  0
  -15.4091   15.6822  -26.5021 C   0  0  0  0  0  0  0  0  0  0  0  0
  -17.4095   14.4464  -27.4395 C   0  0  0  0  0  0  0  0  0  0  0  0
  -23.1442   17.0927  -28.5230 C   0  0  0  0  0  0  0  0  0  0  0  0
  -20.3010   16.3188  -26.1098 C   0  0  0  0  0  0  0  0  0  0  0  0
  -19.5621   15.4609  -27.0692 O   0  0  0  0  0  0  0  0  0  0  0  0
  -17.8652   16.2892  -31.7631 O   0  0  0  0  0  0  0  0  0  0  0  0
  -24.0707   17.2076  -27.4152 C   0  0  0  0  0  0  0  0  0  0  0  0
  -14.3888   14.5229  -26.6313 C   0  0  0  0  0  0  0  0  0  0  0  0
  1  4  1  0
  1  9  1  0
  1 20  1  0
  2  4  1  0
  2  7  1  0
  2 14  1  0
  3 14  1  0
  3 18  1  0
  4  5  1  0
  5 13  1  0
  6 22  1  0
  7 11  1  0
  8 22  1  0
 10 15  1  0
 10 16  1  0
 11 17  1  0
 12 16  1  0
 13 16  1  0
 13 19  1  0
 14 17  1  0
 15 22  1  0
 17 21  1  0
 18 19  1  0
M  END
$$$$
