
     RDKit          3D

 35 38  0  0  0  0  0  0  0  0999 V2000
  -24.9010   15.1715  -27.5862 C   0  0  0  0  0  0  0  0  0  0  0  0
  -15.8582   15.5887  -27.8828 O   0  0  0  0  0  0  0  0  0  0  0  0
  -15.7887   16.8218  -30.5051 C   0  0  0  0  0  0  0  0  0  0  0  0
  -14.2066   13.8363  -26.6816 C   0  0  0  0  0  0  0  0  0  0  0  0
  -15.7079   13.3357  -26.9924 C   0  0  0  0  0  0  0  0  0  0  0  0
  -20.8279   20.2346  -28.3826 C   0  0  0  0  0  0  0  0  0  0  0  0
  -26.5029   13.5277  -28.6588 C   0  0  0  0  0  0  0  0  0  0  0  0
  -20.7682   20.7401  -29.6701 C   0  0  0  0  0  0  0  0  0  0  0  0
  -17.2203   16.0182  -27.7722 C   0  0  0  0  0  0  0  0  0  0  0  0
  -23.8061   15.1250  -28.6017 N   0  0  0  0  0  0  0  0  0  0  0  0
  -19.8400   21.5813  -30.1939 C   0  0  0  0  0  0  0  0  0  0  0  0
  -17.3228   16.6283  -30.2361 N   0  0  0  0  0  0  0  0  0  0  0  0
  -18.1036   16.3051  -26.5428 C   0  0  0  0  0  0  0  0  0  0  0  0
  -19.4041   16.5132  -31.8673 N   0  0  0  0  0  0  0  0  0  0  0  0
  -19.9010   20.4537  -27.3805 C   0  0  0  0  0  0  0  0  0  0  0  0
  -19.7254   16.5313  -26.1408 C   0  0  0  0  0  0  0  0  0  0  0  0
  -18.2045   21.9500  -28.4089 C   0  0  0  0  0  0  0  0  0  0  0  0
  -15.3840   16.8521  -31.9623 C   0  0  0  0  0  0  0  0  0  0  0  0
  -15.0224   14.4518  -27.9433 C   0  0  0  0  0  0  0  0  0  0  0  0
  -26.9213   12.3132  -26.6868 C   0  0  0  0  0  0  0  0  0  0  0  0
  -21.6586   15.9261  -29.1772 C   0  0  0  0  0  0  0  0  0  0  0  0
  -18.7189   22.1193  -29.6524 C   0  0  0  0  0  0  0  0  0  0  0  0
  -21.5138   15.8653  -30.6786 C   0  0  0  0  0  0  0  0  0  0  0  0
  -17.9558   16.3963  -29.0195 N   0  0  0  0  0  0  0  0  0  0  0  0
  -25.9882   13.2550  -26.4852 C   0  0  0  0  0  0  0  0  0  0  0  0
  -25.7320   14.0641  -27.4925 C   0  0  0  0  0  0  0  0  0  0  0  0
  -19.2285   15.4674  -28.8956 N   0  0  0  0  0  0  0  0  0  0  0  0
  -20.3810   15.7057  -28.2820 C   0  0  0  0  0  0  0  0  0  0  0  0
  -18.0553   16.8624  -31.4907 C   0  0  0  0  0  0  0  0  0  0  0  0
  -18.7582   21.1786  -27.4150 C   0  0  0  0  0  0  0  0  0  0  0  0
  -22.0349   15.4904  -27.2053 O   0  0  0  0  0  0  0  0  0  0  0  0
  -20.3280   15.5221  -31.2715 N   0  0  0  0  0  0  0  0  0  0  0  0
  -20.7853   15.7045  -26.9563 C   0  0  0  0  0  0  0  0  0  0  0  0
  -27.3083   12.4162  -28.1195 C   0  0  0  0  0  0  0  0  0  0  0  0
  -22.5726   15.3160  -28.2607 C   0  0  0  0  0  0  0  0  0  0  0  0
  1 10  1  0
  1 26  1  0
  2  9  1  0
  2 19  1  0
  3 12  1  0
  3 18  1  0
  4  5  1  0
  5 19  1  0
  6  8  1  0
  6 15  1  0
  7 26  1  0
  7 34  1  0
  8 11  2  0
  9 13  1  0
  9 24  1  0
 10 35  1  0
 11 22  1  0
 12 24  1  0
 12 29  1  0
 13 16  1  0
 14 29  1  0
 14 32  1  0
 15 30  2  0
 16 33  1  0
 17 22  2  0
 17 30  1  0
 20 25  1  0
 20 34  1  0
 21 23  1  0
 21 28  1  0
 21 35  1  0
 23 32  1  0
 24 27  1  0
 25 26  2  0
 27 28  1  0
 28 33  1  0
 31 33  1  0
 31 35  1  0
M  END
$$$$
