
     RDKit          3D

 31 33  0  0  0  0  0  0  0  0999 V2000
  -19.5198   17.2689  -28.0445 C   0  0  0  0  0  0  0  0  0  0  0  0
  -22.8317   16.1877  -29.6472 C   0  0  0  0  0  0  0  0  0  0  0  0
  -19.3367   17.5062  -26.7312 N   0  0  0  0  0  0  0  0  0  0  0  0
  -23.6427   14.1516  -30.1407 O   0  0  0  0  0  0  0  0  0  0  0  0
  -17.6068   15.5271  -27.8877 C   0  0  0  0  0  0  0  0  0  0  0  0
  -15.5437   13.6311  -28.5379 C   0  0  0  0  0  0  0  0  0  0  0  0
  -17.5136   14.6408  -34.1188 C   0  0  0  0  0  0  0  0  0  0  0  0
  -16.0678   15.8564  -26.0163 O   0  0  0  0  0  0  0  0  0  0  0  0
  -18.5260   16.4658  -35.0538 C   0  0  0  0  0  0  0  0  0  0  0  0
  -17.4026   15.8453  -26.5392 C   0  0  0  0  0  0  0  0  0  0  0  0
  -18.0617   16.9612  -24.4193 C   0  0  0  0  0  0  0  0  0  0  0  0
  -19.3299   17.2378  -30.5453 C   0  0  0  0  0  0  0  0  0  0  0  0
  -21.3751   18.4937  -29.2443 C   0  0  0  0  0  0  0  0  0  0  0  0
  -17.3013   15.6593  -34.9845 C   0  0  0  0  0  0  0  0  0  0  0  0
  -20.3142   14.7709  -32.0467 C   0  0  0  0  0  0  0  0  0  0  0  0
  -19.0103   15.6494  -28.4967 C   0  0  0  0  0  0  0  0  0  0  0  0
  -18.9822   15.4960  -29.9574 C   0  0  0  0  0  0  0  0  0  0  0  0
  -16.9791   14.2860  -28.5570 C   0  0  0  0  0  0  0  0  0  0  0  0
  -18.4918   16.6098  -25.8754 C   0  0  0  0  0  0  0  0  0  0  0  0
  -19.3328   17.8674  -23.8844 C   0  0  0  0  0  0  0  0  0  0  0  0
  -23.2803   14.8877  -28.9268 C   0  0  0  0  0  0  0  0  0  0  0  0
  -19.4691   16.1227  -34.3015 C   0  0  0  0  0  0  0  0  0  0  0  0
  -20.5060   17.3588  -29.4495 C   0  0  0  0  0  0  0  0  0  0  0  0
  -21.3549   16.0364  -29.7778 C   0  0  0  0  0  0  0  0  0  0  0  0
  -21.1063   15.6647  -31.1153 O   0  0  0  0  0  0  0  0  0  0  0  0
  -14.8595   15.7127  -26.8227 C   0  0  0  0  0  0  0  0  0  0  0  0
  -17.2014   16.5806  -23.8910 O   0  0  0  0  0  0  0  0  0  0  0  0
  -19.5273   15.1013  -33.4757 C   0  0  0  0  0  0  0  0  0  0  0  0
  -16.4047   15.5356  -36.0219 C   0  0  0  0  0  0  0  0  0  0  0  0
  -14.8392   14.0172  -27.0507 C   0  0  0  0  0  0  0  0  0  0  0  0
  -18.4275   14.1934  -33.5836 C   0  0  0  0  0  0  0  0  0  0  0  0
  1  3  1  0
  1 16  1  0
  1 23  1  0
  2 21  1  0
  2 24  1  0
  3 19  1  0
  4 21  1  0
  5 10  1  0
  5 16  1  0
  5 18  1  0
  6 18  1  0
  6 30  1  0
  7 14  1  0
  7 31  1  0
  8 10  1  0
  8 26  1  0
  9 14  1  0
  9 22  2  0
 10 19  1  0
 11 19  1  0
 11 20  1  0
 11 27  2  0
 12 23  1  0
 13 23  1  0
 14 29  2  0
 15 25  1  0
 15 28  1  0
 16 17  1  0
 22 28  1  0
 23 24  1  0
 24 25  1  0
 26 30  1  0
 28 31  1  0
M  END
$$$$
