
     RDKit          3D

 35 39  0  0  0  0  0  0  0  0999 V2000
  -22.6347   18.4838  -29.2985 C   0  0  0  0  0  0  0  0  0  0  0  0
  -20.1848   15.7752  -29.4131 N   0  0  0  0  0  0  0  0  0  0  0  0
  -20.0098   15.1160  -31.7905 C   0  0  0  0  0  0  0  0  0  0  0  0
  -19.2808   18.2507  -23.8667 O   0  0  0  0  0  0  0  0  0  0  0  0
  -18.9605   15.8673  -27.4778 N   0  0  0  0  0  0  0  0  0  0  0  0
  -22.1141   19.8624  -28.8247 C   0  0  0  0  0  0  0  0  0  0  0  0
  -17.8395   15.6662  -27.1265 C   0  0  0  0  0  0  0  0  0  0  0  0
  -19.7548   14.0606  -33.5794 C   0  0  0  0  0  0  0  0  0  0  0  0
  -20.1328   16.5767  -26.9034 C   0  0  0  0  0  0  0  0  0  0  0  0
  -20.2747   14.0129  -32.5558 O   0  0  0  0  0  0  0  0  0  0  0  0
  -23.9344   17.9100  -28.7565 C   0  0  0  0  0  0  0  0  0  0  0  0
  -14.2411   15.5498  -26.9502 C   0  0  0  0  0  0  0  0  0  0  0  0
  -20.3037   18.8157  -26.0021 C   0  0  0  0  0  0  0  0  0  0  0  0
  -19.0164   16.0679  -32.8460 C   0  0  0  0  0  0  0  0  0  0  0  0
  -19.4394   15.5106  -34.0260 C   0  0  0  0  0  0  0  0  0  0  0  0
  -23.4042   15.1107  -28.4952 C   0  0  0  0  0  0  0  0  0  0  0  0
  -20.2514   18.0456  -27.2377 O   0  0  0  0  0  0  0  0  0  0  0  0
  -21.0328   16.3878  -30.1828 C   0  0  0  0  0  0  0  0  0  0  0  0
  -20.0879   17.7176  -24.8310 C   0  0  0  0  0  0  0  0  0  0  0  0
  -24.2905   16.4480  -29.0779 C   0  0  0  0  0  0  0  0  0  0  0  0
  -21.1736   21.0936  -25.7694 N   0  0  0  0  0  0  0  0  0  0  0  0
  -21.8057   17.8095  -30.0835 N   0  0  0  0  0  0  0  0  0  0  0  0
  -15.4803   14.7130  -26.5881 C   0  0  0  0  0  0  0  0  0  0  0  0
  -25.6292   16.1173  -28.8137 O   0  0  0  0  0  0  0  0  0  0  0  0
  -25.6258   15.4086  -27.3081 C   0  0  0  0  0  0  0  0  0  0  0  0
  -17.6234   16.3492  -29.4426 C   0  0  0  0  0  0  0  0  0  0  0  0
  -20.6946   16.6111  -25.7042 C   0  0  0  0  0  0  0  0  0  0  0  0
  -24.3879   14.4550  -27.4917 C   0  0  0  0  0  0  0  0  0  0  0  0
  -16.5200   15.9611  -28.7394 N   0  0  0  0  0  0  0  0  0  0  0  0
  -20.6238   21.3401  -27.0296 C   0  0  0  0  0  0  0  0  0  0  0  0
  -20.8768   15.9430  -31.2981 N   0  0  0  0  0  0  0  0  0  0  0  0
  -21.5124   19.6792  -25.6280 C   0  0  0  0  0  0  0  0  0  0  0  0
  -16.7014   15.3896  -27.4186 C   0  0  0  0  0  0  0  0  0  0  0  0
  -19.0061   15.8990  -28.9077 C   0  0  0  0  0  0  0  0  0  0  0  0
  -21.1206   20.5923  -28.0940 N   0  0  0  0  0  0  0  0  0  0  0  0
  1  6  1  0
  1 11  2  3
  1 22  1  0
  2 18  1  0
  2 34  2  3
  3 10  1  0
  3 14  1  0
  3 31  1  0
  4 19  1  0
  5  7  1  0
  5  9  1  0
  5 34  1  0
  6 35  1  0
  7 33  1  0
  8 10  1  0
  8 15  1  0
  9 17  1  0
  9 27  1  0
 11 20  1  0
 12 23  1  0
 13 17  1  0
 13 19  1  0
 13 32  1  0
 14 15  1  0
 16 20  1  0
 16 28  1  0
 18 22  1  0
 18 31  1  0
 19 27  1  0
 20 24  1  0
 21 30  1  0
 21 32  1  0
 23 33  1  0
 24 25  1  0
 25 28  1  0
 26 29  1  0
 26 34  1  0
 29 33  2  0
 30 35  1  0
M  END
$$$$
