
     RDKit          3D

 22 25  0  0  0  0  0  0  0  0999 V2000
  -20.8631   16.3107  -29.1565 C   0  0  0  0  0  0  0  0  0  0  0  0
  -17.6367   15.1496  -28.2317 C   0  0  0  0  0  0  0  0  0  0  0  0
  -20.2803   16.3574  -30.4448 C   0  0  0  0  0  0  0  0  0  0  0  0
  -19.9300   17.0715  -32.6541 C   0  0  0  0  0  0  0  0  0  0  0  0
  -20.5580   17.2935  -31.4868 C   0  0  0  0  0  0  0  0  0  0  0  0
  -18.1704   15.6116  -27.1075 C   0  0  0  0  0  0  0  0  0  0  0  0
  -17.9829   16.5802  -24.8714 F   0  0  0  0  0  0  0  0  0  0  0  0
  -17.2331   16.4614  -26.2107 C   0  0  0  0  0  0  0  0  0  0  0  0
  -19.5736   15.4976  -27.0036 C   0  0  0  0  0  0  0  0  0  0  0  0
  -19.5268   15.7702  -33.0118 C   0  0  0  0  0  0  0  0  0  0  0  0
  -15.2359   15.5724  -27.1731 C   0  0  0  0  0  0  0  0  0  0  0  0
  -16.0798   15.2029  -28.4184 C   0  0  0  0  0  0  0  0  0  0  0  0
  -20.7068   16.0387  -26.1181 C   0  0  0  0  0  0  0  0  0  0  0  0
  -18.5004   14.8275  -29.4125 C   0  0  0  0  0  0  0  0  0  0  0  0
  -20.0478   17.9491  -33.7147 O   0  0  0  0  0  0  0  0  0  0  0  0
  -20.4212   15.6744  -28.1213 N   0  0  0  0  0  0  0  0  0  0  0  0
  -21.8242   17.2385  -28.9974 O   0  0  0  0  0  0  0  0  0  0  0  0
  -16.0181   16.0999  -26.0717 C   0  0  0  0  0  0  0  0  0  0  0  0
  -19.4788   15.4598  -34.1311 O   0  0  0  0  0  0  0  0  0  0  0  0
  -21.6711   15.7975  -27.1137 C   0  0  0  0  0  0  0  0  0  0  0  0
  -19.0875   14.9646  -31.8502 C   0  0  0  0  0  0  0  0  0  0  0  0
  -19.1820   15.5038  -30.5904 C   0  0  0  0  0  0  0  0  0  0  0  0
  1  3  1  0
  1 16  1  0
  1 17  2  0
  2  6  1  0
  2 12  2  0
  2 14  1  0
  3  5  2  0
  3 22  1  0
  4  5  1  0
  4 10  1  0
  4 15  1  0
  6  8  1  0
  6  9  1  0
  7  8  1  0
  8 18  1  0
  9 13  1  0
  9 16  1  0
 10 19  2  0
 10 21  1  0
 11 12  1  0
 11 18  1  0
 13 20  1  0
 14 22  1  0
 16 20  1  0
 21 22  1  0
M  END
$$$$
