
     RDKit          3D

 20 21  0  0  0  0  0  0  0  0999 V2000
  -21.8339   17.0134  -27.0002 N   0  0  0  0  0  0  0  0  0  0  0  0
  -14.7326   17.1657  -27.5647 C   0  0  0  0  0  0  0  0  0  0  0  0
  -15.5217   16.2760  -28.5454 C   0  0  0  0  0  0  0  0  0  0  0  0
  -21.3113   17.8074  -25.9928 C   0  0  0  0  0  0  0  0  0  0  0  0
  -19.6280   16.7516  -30.3202 C   0  0  0  0  0  0  0  0  0  0  0  0
  -19.4621   16.7031  -26.0373 N   0  0  0  0  0  0  0  0  0  0  0  0
  -19.2149   15.4884  -29.8059 N   0  0  0  0  0  0  0  0  0  0  0  0
  -18.1638   14.6100  -29.6665 C   0  0  0  0  0  0  0  0  0  0  0  0
  -16.4756   15.3052  -27.8509 C   0  0  0  0  0  0  0  0  0  0  0  0
  -18.7974   14.9001  -27.4515 C   0  0  0  0  0  0  0  0  0  0  0  0
  -19.8485   15.7241  -26.9659 C   0  0  0  0  0  0  0  0  0  0  0  0
  -15.9853   13.1367  -26.9990 O   0  0  0  0  0  0  0  0  0  0  0  0
  -20.1412   14.7302  -32.1158 C   0  0  0  0  0  0  0  0  0  0  0  0
  -13.8464   16.4357  -26.7818 C   0  0  0  0  0  0  0  0  0  0  0  0
  -17.8620   14.5418  -28.0978 C   0  0  0  0  0  0  0  0  0  0  0  0
  -21.1182   15.9414  -27.4415 C   0  0  0  0  0  0  0  0  0  0  0  0
  -15.6112   14.6072  -26.7511 C   0  0  0  0  0  0  0  0  0  0  0  0
  -18.8482   14.5826  -31.3644 C   0  0  0  0  0  0  0  0  0  0  0  0
  -14.1027   14.9175  -26.8671 C   0  0  0  0  0  0  0  0  0  0  0  0
  -20.2622   17.4644  -25.3454 C   0  0  0  0  0  0  0  0  0  0  0  0
  1  4  2  0
  1 16  1  0
  2  3  1  0
  2 14  1  0
  3  9  1  0
  4 20  1  0
  5  7  1  0
  6 11  1  0
  6 20  1  0
  7  8  1  0
  8 15  1  0
  8 18  1  0
  9 15  1  0
  9 17  1  0
 10 11  1  0
 10 15  1  0
 11 16  2  0
 12 17  1  0
 13 18  1  0
 14 19  1  0
 17 19  1  0
M  END
$$$$
