
     RDKit          3D

 29 32  0  0  0  0  0  0  0  0999 V2000
  -16.1320   16.2063  -25.9198 C   0  0  0  0  0  0  0  0  0  0  0  0
  -21.5954   15.9607  -29.3264 C   0  0  0  0  0  0  0  0  0  0  0  0
  -21.9244   15.7105  -30.5918 O   0  0  0  0  0  0  0  0  0  0  0  0
  -19.1708   15.4096  -28.7840 O   0  0  0  0  0  0  0  0  0  0  0  0
  -21.0451   17.4613  -29.4340 C   0  0  0  0  0  0  0  0  0  0  0  0
  -22.2975   15.6176  -28.0409 C   0  0  0  0  0  0  0  0  0  0  0  0
  -18.6582   18.4547  -30.3418 C   0  0  0  0  0  0  0  0  0  0  0  0
  -20.7516   19.7572  -30.1355 O   0  0  0  0  0  0  0  0  0  0  0  0
  -20.6680   15.3870  -31.3924 O   0  0  0  0  0  0  0  0  0  0  0  0
  -14.2283   15.3800  -27.4968 C   0  0  0  0  0  0  0  0  0  0  0  0
  -17.5551   16.4413  -29.4002 N   0  0  0  0  0  0  0  0  0  0  0  0
  -15.5319   14.9118  -26.4519 C   0  0  0  0  0  0  0  0  0  0  0  0
  -24.7632   16.1496  -27.6346 C   0  0  0  0  0  0  0  0  0  0  0  0
  -19.6986   17.4157  -30.1282 C   0  0  0  0  0  0  0  0  0  0  0  0
  -21.5530   18.8591  -29.5337 C   0  0  0  0  0  0  0  0  0  0  0  0
  -23.4918   16.6973  -27.7678 C   0  0  0  0  0  0  0  0  0  0  0  0
  -20.7304   16.4154  -25.9347 C   0  0  0  0  0  0  0  0  0  0  0  0
  -19.3920   19.7684  -30.2828 C   0  0  0  0  0  0  0  0  0  0  0  0
  -23.3798   18.0944  -27.7229 C   0  0  0  0  0  0  0  0  0  0  0  0
  -25.6782   18.3521  -27.4475 C   0  0  0  0  0  0  0  0  0  0  0  0
  -17.1281   17.6419  -30.2949 C   0  0  0  0  0  0  0  0  0  0  0  0
  -18.9027   16.1604  -29.4564 C   0  0  0  0  0  0  0  0  0  0  0  0
  -16.6036   15.5456  -28.5790 C   0  0  0  0  0  0  0  0  0  0  0  0
  -25.8159   16.9591  -27.3609 C   0  0  0  0  0  0  0  0  0  0  0  0
  -15.0054   15.9331  -28.8763 C   0  0  0  0  0  0  0  0  0  0  0  0
  -21.5030   15.6394  -26.8453 C   0  0  0  0  0  0  0  0  0  0  0  0
  -16.7423   14.4807  -27.4263 C   0  0  0  0  0  0  0  0  0  0  0  0
  -24.4349   18.9234  -27.6500 C   0  0  0  0  0  0  0  0  0  0  0  0
  -15.3271   17.0643  -30.3060 C   0  0  0  0  0  0  0  0  0  0  0  0
  1 12  1  0
  2  3  1  0
  2  5  1  0
  2  6  1  0
  3  9  1  0
  4 22  2  0
  5 14  1  0
  5 15  1  0
  6 16  1  0
  6 26  1  0
  7 14  1  0
  7 18  2  0
  7 21  1  0
  8 15  1  0
  8 18  1  0
 10 12  1  0
 10 25  1  0
 11 21  1  0
 11 22  1  0
 11 23  1  0
 12 27  1  0
 13 16  1  0
 13 24  2  0
 14 22  1  0
 16 19  1  0
 17 26  1  0
 19 28  2  0
 20 24  1  0
 20 28  1  0
 23 25  1  0
 23 27  1  0
 25 29  1  0
M  END
$$$$
