
     RDKit          3D

 31 33  0  0  0  0  0  0  0  0999 V2000
  -20.9687   18.0374  -24.7961 C   0  0  0  0  0  0  0  0  0  0  0  0
  -19.2564   15.6692  -29.4203 N   0  0  0  0  0  0  0  0  0  0  0  0
  -13.2723   17.0629  -29.5203 C   0  0  0  0  0  0  0  0  0  0  0  0
  -13.2721   14.8377  -28.1550 C   0  0  0  0  0  0  0  0  0  0  0  0
  -15.8744   15.2532  -28.0254 C   0  0  0  0  0  0  0  0  0  0  0  0
  -20.4001   16.3626  -26.3834 C   0  0  0  0  0  0  0  0  0  0  0  0
  -21.4161   17.4904  -22.4423 C   0  0  0  0  0  0  0  0  0  0  0  0
  -14.8829   16.7454  -31.3554 C   0  0  0  0  0  0  0  0  0  0  0  0
  -21.4309   18.8731  -25.9450 N   0  0  0  0  0  0  0  0  0  0  0  0
  -17.9272   16.5708  -32.5098 N   0  0  0  0  0  0  0  0  0  0  0  0
  -19.0845   15.9568  -33.1421 C   0  0  0  0  0  0  0  0  0  0  0  0
  -14.7636   14.5451  -27.7880 C   0  0  0  0  0  0  0  0  0  0  0  0
  -16.4595   13.2513  -27.0393 N   0  0  0  0  0  0  0  0  0  0  0  0
  -15.0642   13.3911  -27.0921 C   0  0  0  0  0  0  0  0  0  0  0  0
  -19.9141   15.0168  -32.0311 C   0  0  0  0  0  0  0  0  0  0  0  0
  -21.6855   19.8873  -23.0390 C   0  0  0  0  0  0  0  0  0  0  0  0
  -19.5286   15.3980  -27.0275 O   0  0  0  0  0  0  0  0  0  0  0  0
  -17.9948   17.4731  -31.4085 O   0  0  0  0  0  0  0  0  0  0  0  0
  -13.3957   15.7309  -29.3224 C   0  0  0  0  0  0  0  0  0  0  0  0
  -17.0465   14.3661  -27.4612 C   0  0  0  0  0  0  0  0  0  0  0  0
  -21.8153   18.2403  -27.0261 C   0  0  0  0  0  0  0  0  0  0  0  0
  -21.2462   16.9814  -27.3297 C   0  0  0  0  0  0  0  0  0  0  0  0
  -16.6940   16.6076  -33.2040 C   0  0  0  0  0  0  0  0  0  0  0  0
  -19.1086   15.3160  -30.8159 N   0  0  0  0  0  0  0  0  0  0  0  0
  -21.3542   18.5516  -23.4485 C   0  0  0  0  0  0  0  0  0  0  0  0
  -18.3745   14.7262  -27.5003 C   0  0  0  0  0  0  0  0  0  0  0  0
  -19.0923   15.3683  -28.1491 C   0  0  0  0  0  0  0  0  0  0  0  0
  -12.1623   17.7886  -28.9942 C   0  0  0  0  0  0  0  0  0  0  0  0
  -13.7297   17.5502  -30.7898 N   0  0  0  0  0  0  0  0  0  0  0  0
  -20.5041   17.0722  -25.2670 C   0  0  0  0  0  0  0  0  0  0  0  0
  -15.6209   17.4670  -32.5199 C   0  0  0  0  0  0  0  0  0  0  0  0
  1  9  1  0
  1 25  1  0
  1 30  1  0
  2 24  1  0
  2 27  1  0
  3 19  1  0
  3 28  1  0
  3 29  1  0
  4 12  1  0
  4 19  1  0
  5 12  1  0
  5 20  1  0
  6 17  1  0
  6 22  1  0
  6 30  1  0
  7 25  1  0
  8 29  1  0
  8 31  1  0
  9 21  1  0
 10 11  1  0
 10 18  1  0
 10 23  1  0
 11 15  1  0
 12 14  1  0
 13 14  1  0
 13 20  1  0
 15 24  1  0
 16 25  1  0
 17 27  1  0
 20 26  1  0
 21 22  2  0
 23 31  1  0
 26 27  1  0
M  END
$$$$
