
     RDKit          3D

 15 15  0  0  0  0  0  0  0  0999 V2000
  -20.8881   15.7112  -26.4587 C   0  0  0  0  0  0  0  0  0  0  0  0
  -20.4068   16.0501  -30.1841 C   0  0  0  0  0  0  0  0  0  0  0  0
  -18.7503   15.1329  -28.2264 C   0  0  0  0  0  0  0  0  0  0  0  0
  -22.0762   17.5528  -30.9162 C   0  0  0  0  0  0  0  0  0  0  0  0
  -22.6052   17.5664  -29.7529 C   0  0  0  0  0  0  0  0  0  0  0  0
  -20.8378   16.0992  -28.8920 C   0  0  0  0  0  0  0  0  0  0  0  0
  -20.0015   15.6412  -27.6986 C   0  0  0  0  0  0  0  0  0  0  0  0
  -21.9810   16.8925  -28.6932 C   0  0  0  0  0  0  0  0  0  0  0  0
  -15.1731   14.2234  -26.5987 C   0  0  0  0  0  0  0  0  0  0  0  0
  -14.0370   13.8847  -26.8217 C   0  0  0  0  0  0  0  0  0  0  0  0
  -19.7313   16.1333  -26.4840 C   0  0  0  0  0  0  0  0  0  0  0  0
  -17.7175   14.6821  -27.4819 C   0  0  0  0  0  0  0  0  0  0  0  0
  -16.4865   13.6695  -27.2966 C   0  0  0  0  0  0  0  0  0  0  0  0
  -16.8554   15.9547  -27.3334 O   0  0  0  0  0  0  0  0  0  0  0  0
  -20.9451   16.6881  -31.1528 C   0  0  0  0  0  0  0  0  0  0  0  0
  1 11  1  0
  2  6  1  0
  2 15  2  0
  3  7  1  0
  3 12  1  0
  4  5  2  0
  4 15  1  0
  5  8  1  0
  6  7  1  0
  6  8  2  0
  7 11  1  0
  9 10  2  0
  9 13  1  0
 12 13  1  0
 12 14  1  0
M  END
$$$$
