
     RDKit          3D

 21 20  0  0  0  0  0  0  0  0999 V2000
  -13.6474   14.0343  -27.8119 C   0  0  0  0  0  0  0  0  0  0  0  0
  -18.0253   17.0978  -31.6508 C   0  0  0  0  0  0  0  0  0  0  0  0
  -18.4014   17.8792  -30.5261 O   0  0  0  0  0  0  0  0  0  0  0  0
  -19.6721   15.5678  -27.5496 C   0  0  0  0  0  0  0  0  0  0  0  0
  -22.6290   15.9983  -27.6148 C   0  0  0  0  0  0  0  0  0  0  0  0
  -15.5568   19.3838  -26.8733 C   0  0  0  0  0  0  0  0  0  0  0  0
  -14.6689   16.5072  -27.0172 C   0  0  0  0  0  0  0  0  0  0  0  0
  -17.2966   16.2892  -26.3793 C   0  0  0  0  0  0  0  0  0  0  0  0
  -17.4809   15.1652  -27.2924 C   0  0  0  0  0  0  0  0  0  0  0  0
  -20.6477   15.7195  -28.3807 O   0  0  0  0  0  0  0  0  0  0  0  0
  -18.4470   16.8274  -25.9311 N   0  0  0  0  0  0  0  0  0  0  0  0
  -16.1068   18.3246  -26.1255 O   0  0  0  0  0  0  0  0  0  0  0  0
  -18.4644   15.1045  -27.8209 N   0  0  0  0  0  0  0  0  0  0  0  0
  -20.8894   15.6009  -31.1866 C   0  0  0  0  0  0  0  0  0  0  0  0
  -20.4866   16.9659  -31.7992 C   0  0  0  0  0  0  0  0  0  0  0  0
  -15.8883   16.9050  -25.9941 C   0  0  0  0  0  0  0  0  0  0  0  0
  -22.1481   15.6973  -30.3135 C   0  0  0  0  0  0  0  0  0  0  0  0
  -14.5517   14.2991  -26.5984 C   0  0  0  0  0  0  0  0  0  0  0  0
  -19.6564   16.4151  -26.4186 C   0  0  0  0  0  0  0  0  0  0  0  0
  -19.2953   16.7643  -32.6076 C   0  0  0  0  0  0  0  0  0  0  0  0
  -21.8821   15.7510  -28.7825 C   0  0  0  0  0  0  0  0  0  0  0  0
  1 18  1  0
  2  3  1  0
  2 20  1  0
  4 10  1  0
  4 13  2  0
  4 19  1  0
  5 21  1  0
  6 12  1  0
  7 16  1  0
  8  9  1  0
  8 11  2  0
  8 16  1  0
  9 13  1  0
 10 21  1  0
 11 19  1  0
 12 16  1  0
 14 15  1  0
 14 17  1  0
 15 20  1  0
 17 21  1  0
M  END
$$$$
