
     RDKit          3D

 16 17  0  0  0  0  0  0  0  0999 V2000
  -17.3832   14.5828  -28.0011 C   0  0  0  0  0  0  0  0  0  0  0  0
  -22.5613   16.5696  -27.5639 O   0  0  0  0  0  0  0  0  0  0  0  0
  -21.6628   16.0196  -28.5816 C   0  0  0  0  0  0  0  0  0  0  0  0
  -19.9215   15.8375  -30.6752 C   0  0  0  0  0  0  0  0  0  0  0  0
  -18.2633   14.8436  -29.1658 C   0  0  0  0  0  0  0  0  0  0  0  0
  -15.7487   15.4817  -26.3759 C   0  0  0  0  0  0  0  0  0  0  0  0
  -20.3464   15.8764  -28.2752 C   0  0  0  0  0  0  0  0  0  0  0  0
  -16.2857   13.6129  -28.0625 C   0  0  0  0  0  0  0  0  0  0  0  0
  -17.0620   15.5351  -27.0462 C   0  0  0  0  0  0  0  0  0  0  0  0
  -17.1785   15.4542  -30.3821 O   0  0  0  0  0  0  0  0  0  0  0  0
  -15.5567   13.1214  -27.1179 C   0  0  0  0  0  0  0  0  0  0  0  0
  -22.1506   15.9855  -29.9232 C   0  0  0  0  0  0  0  0  0  0  0  0
  -21.2665   15.9067  -30.9251 C   0  0  0  0  0  0  0  0  0  0  0  0
  -15.2642   14.0515  -26.3351 C   0  0  0  0  0  0  0  0  0  0  0  0
  -23.4859   16.1271  -30.2777 O   0  0  0  0  0  0  0  0  0  0  0  0
  -19.3741   15.7857  -29.3189 C   0  0  0  0  0  0  0  0  0  0  0  0
  1  5  1  0
  1  8  1  0
  1  9  1  0
  2  3  1  0
  3  7  1  0
  3 12  1  0
  4 13  1  0
  4 16  1  0
  5 10  1  0
  5 16  1  0
  6  9  1  0
  6 14  1  0
  7 16  1  0
  8 11  1  0
 11 14  1  0
 12 13  2  0
 12 15  1  0
M  END
$$$$
