
     RDKit          3D

 35 38  0  0  0  0  0  0  0  0999 V2000
   38.8290   45.4212   42.5350 O   0  0  0  0  0  0  0  0  0  0  0  0
   36.8169   51.4334   45.9801 C   0  0  0  0  0  0  0  0  0  0  0  0
   36.9510   53.5194   43.2102 C   0  0  0  0  0  0  0  0  0  0  0  0
   39.2071   47.2898   41.0521 C   0  0  0  0  0  0  0  0  0  0  0  0
   34.7870   55.1585   43.2563 O   0  0  0  0  0  0  0  0  0  0  0  0
   36.1328   54.5855   42.3594 C   0  0  0  0  0  0  0  0  0  0  0  0
   36.7884   52.1499   42.8262 C   0  0  0  0  0  0  0  0  0  0  0  0
   33.7445   52.4938   45.1918 C   0  0  0  0  0  0  0  0  0  0  0  0
   29.7587   52.2445   34.3179 C   0  0  0  0  0  0  0  0  0  0  0  0
   33.7884   53.9988   45.1190 C   0  0  0  0  0  0  0  0  0  0  0  0
   34.8623   54.1195   44.1783 C   0  0  0  0  0  0  0  0  0  0  0  0
   38.0908   47.5814   43.1950 C   0  0  0  0  0  0  0  0  0  0  0  0
   37.9331   51.7853   44.9844 C   0  0  0  0  0  0  0  0  0  0  0  0
   35.8865   51.7924   41.7124 C   0  0  0  0  0  0  0  0  0  0  0  0
   32.0257   57.8667   43.6136 C   0  0  0  0  0  0  0  0  0  0  0  0
   38.6155   49.4568   41.8293 C   0  0  0  0  0  0  0  0  0  0  0  0
   30.2560   52.1725   35.4940 O   0  0  0  0  0  0  0  0  0  0  0  0
   33.0389   57.0274   43.1177 C   0  0  0  0  0  0  0  0  0  0  0  0
   33.5418   55.9326   43.8086 C   0  0  0  0  0  0  0  0  0  0  0  0
   37.2940   49.8066   43.7825 O   0  0  0  0  0  0  0  0  0  0  0  0
   39.2036   48.6478   40.8616 C   0  0  0  0  0  0  0  0  0  0  0  0
   38.0159   48.9278   42.9367 C   0  0  0  0  0  0  0  0  0  0  0  0
   29.7410   51.6495   33.3591 C   0  0  0  0  0  0  0  0  0  0  0  0
   38.7161   46.7679   42.2370 C   0  0  0  0  0  0  0  0  0  0  0  0
   30.7320   50.4044   33.1867 O   0  0  0  0  0  0  0  0  0  0  0  0
   34.8811   51.8413   44.4258 C   0  0  0  0  0  0  0  0  0  0  0  0
   39.6911   46.3872   40.0090 C   0  0  0  0  0  0  0  0  0  0  0  0
   32.3157   55.7622   45.9652 N   0  0  0  0  0  0  0  0  0  0  0  0
   37.5277   51.1899   43.6644 C   0  0  0  0  0  0  0  0  0  0  0  0
   31.5205   58.9190   42.7240 C   0  0  0  0  0  0  0  0  0  0  0  0
   35.8221   52.9736   44.0061 C   0  0  0  0  0  0  0  0  0  0  0  0
   33.1395   55.3504   44.9490 C   0  0  0  0  0  0  0  0  0  0  0  0
   35.5487   50.8072   45.3422 C   0  0  0  0  0  0  0  0  0  0  0  0
   31.5956   56.9060   45.8350 C   0  0  0  0  0  0  0  0  0  0  0  0
   31.4862   57.7593   44.8586 C   0  0  0  0  0  0  0  0  0  0  0  0
  1 24  1  0
  2 13  1  0
  2 33  1  0
  3  6  1  0
  3  7  1  0
  3 31  1  0
  4 21  1  0
  4 24  2  0
  4 27  1  0
  5 11  1  0
  5 19  1  0
  7 14  1  0
  7 29  1  0
  8 10  1  0
  8 26  1  0
  9 17  1  0
  9 23  2  3
 10 11  1  0
 10 32  1  0
 11 31  1  0
 12 22  2  0
 12 24  1  0
 13 29  1  0
 15 18  1  0
 15 30  1  0
 15 35  1  0
 16 21  2  0
 16 22  1  0
 18 19  2  0
 19 32  1  0
 20 22  1  0
 20 29  1  0
 23 25  1  0
 26 31  1  0
 26 33  1  0
 28 32  2  0
 28 34  1  0
 34 35  2  0
M  END
$$$$
