
     RDKit          3D

 39 43  0  0  0  0  0  0  0  0999 V2000
   38.5883   47.0929   37.2322 C   0  0  0  0  0  0  0  0  0  0  0  0
   34.8512   50.3005   43.3003 N   0  0  0  0  0  0  0  0  0  0  0  0
   38.2783   47.5871   42.9250 C   0  0  0  0  0  0  0  0  0  0  0  0
   37.2011   49.9744   43.3712 N   0  0  0  0  0  0  0  0  0  0  0  0
   39.0778   48.3139   40.6303 C   0  0  0  0  0  0  0  0  0  0  0  0
   34.1631   50.9795   42.3101 C   0  0  0  0  0  0  0  0  0  0  0  0
   38.2358   54.8956   41.8791 C   0  0  0  0  0  0  0  0  0  0  0  0
   38.3284   46.0803   36.2113 C   0  0  0  0  0  0  0  0  0  0  0  0
   34.7013   54.9777   45.4155 C   0  0  0  0  0  0  0  0  0  0  0  0
   37.9389   45.1621   42.6896 C   0  0  0  0  0  0  0  0  0  0  0  0
   38.6165   45.7206   41.4478 C   0  0  0  0  0  0  0  0  0  0  0  0
   35.9690   54.7386   44.7361 C   0  0  0  0  0  0  0  0  0  0  0  0
   33.8540   55.9600   43.3172 C   0  0  0  0  0  0  0  0  0  0  0  0
   37.1351   54.2748   42.4157 C   0  0  0  0  0  0  0  0  0  0  0  0
   36.1190   51.9155   42.4085 N   0  0  0  0  0  0  0  0  0  0  0  0
   36.0526   54.7553   43.2952 N   0  0  0  0  0  0  0  0  0  0  0  0
   39.7630   47.7857   39.3632 C   0  0  0  0  0  0  0  0  0  0  0  0
   34.9355   51.8502   41.6888 C   0  0  0  0  0  0  0  0  0  0  0  0
   33.6645   55.7383   44.6886 N   0  0  0  0  0  0  0  0  0  0  0  0
   39.1930   55.7493   41.8473 C   0  0  0  0  0  0  0  0  0  0  0  0
   39.5983   56.6998   42.7942 C   0  0  0  0  0  0  0  0  0  0  0  0
   32.6156   56.3450   45.3165 C   0  0  0  0  0  0  0  0  0  0  0  0
   33.1516   56.8913   42.6283 C   0  0  0  0  0  0  0  0  0  0  0  0
   34.8734   55.2429   42.6749 C   0  0  0  0  0  0  0  0  0  0  0  0
   37.2026   55.0176   45.4922 C   0  0  0  0  0  0  0  0  0  0  0  0
   31.6557   57.2144   45.0314 C   0  0  0  0  0  0  0  0  0  0  0  0
   37.8186   48.7703   43.5719 C   0  0  0  0  0  0  0  0  0  0  0  0
   36.1684   50.7789   43.3892 C   0  0  0  0  0  0  0  0  0  0  0  0
   31.4026   57.9891   43.8545 C   0  0  0  0  0  0  0  0  0  0  0  0
   36.9799   52.9310   42.1123 C   0  0  0  0  0  0  0  0  0  0  0  0
   38.0191   50.9076   45.4839 C   0  0  0  0  0  0  0  0  0  0  0  0
   36.6873   50.7146   44.7346 C   0  0  0  0  0  0  0  0  0  0  0  0
   38.7381   47.2342   41.6127 C   0  0  0  0  0  0  0  0  0  0  0  0
   38.2171   56.0227   44.8728 C   0  0  0  0  0  0  0  0  0  0  0  0
   39.1416   56.8306   44.0377 C   0  0  0  0  0  0  0  0  0  0  0  0
   39.0712   46.5841   38.6036 C   0  0  0  0  0  0  0  0  0  0  0  0
   34.6686   53.9370   46.5869 C   0  0  0  0  0  0  0  0  0  0  0  0
   32.1843   57.7652   42.7321 C   0  0  0  0  0  0  0  0  0  0  0  0
   37.9102   46.2818   43.7297 C   0  0  0  0  0  0  0  0  0  0  0  0
  1  8  1  0
  1 36  1  0
  2  6  1  0
  2 28  1  0
  3 27  1  0
  3 33  2  0
  3 39  1  0
  4 27  1  0
  4 28  1  0
  5 17  1  0
  5 33  1  0
  6 18  1  0
  7 14  2  0
  7 20  2  0
  9 12  1  0
  9 19  1  0
  9 37  1  0
 10 11  1  0
 10 39  1  0
 11 33  1  0
 12 16  1  0
 12 25  1  0
 13 19  1  0
 13 23  1  0
 13 24  1  0
 14 16  1  0
 14 30  1  0
 15 18  1  0
 15 28  1  0
 15 30  1  0
 16 24  1  0
 17 36  1  0
 19 22  1  0
 20 21  1  0
 21 35  1  0
 22 26  2  0
 23 38  2  0
 25 34  2  0
 26 29  1  0
 28 32  1  0
 29 38  1  0
 31 32  1  0
 34 35  2  0
M  END
$$$$
