
     RDKit          3D

 26 25  0  0  0  0  0  0  0  0999 V2000
    4.4076  -12.0823   12.6233 C   0  0  0  0  0  0  0  0  0  0  0  0
    2.3821  -10.4436   13.3795 C   0  0  0  0  0  0  0  0  0  0  0  0
    3.5688  -11.2873   13.5453 O   0  0  0  0  0  0  0  0  0  0  0  0
    5.0397  -12.2990   16.9922 C   0  0  0  0  0  0  0  0  0  0  0  0
    1.9217   -6.9065   19.1514 C   0  0  0  0  0  0  0  0  0  0  0  0
    5.9640  -12.4766   19.4380 C   0  0  0  0  0  0  0  0  0  0  0  0
    4.3822  -13.7189   16.6721 C   0  0  0  0  0  0  0  0  0  0  0  0
    0.1783  -10.1657   17.5663 O   0  0  0  0  0  0  0  0  0  0  0  0
    6.6132  -11.9344   20.3847 O   0  0  0  0  0  0  0  0  0  0  0  0
    1.3256   -9.4144   19.6386 C   0  0  0  0  0  0  0  0  0  0  0  0
    5.4363  -11.6802   18.3090 C   0  0  0  0  0  0  0  0  0  0  0  0
    2.0743   -8.1283   20.1074 C   0  0  0  0  0  0  0  0  0  0  0  0
    2.0773   -9.6555   14.6516 C   0  0  0  0  0  0  0  0  0  0  0  0
    1.2364   -9.5362   18.1537 C   0  0  0  0  0  0  0  0  0  0  0  0
    5.7876  -10.2096   18.2582 C   0  0  0  0  0  0  0  0  0  0  0  0
    3.5991  -11.9992   14.8424 C   0  0  0  0  0  0  0  0  0  0  0  0
    6.2977  -12.2881   16.0032 C   0  0  0  0  0  0  0  0  0  0  0  0
    3.8471  -11.1563   16.2120 C   0  0  0  0  0  0  0  0  0  0  0  0
    1.8660  -10.5322   11.9842 C   0  0  0  0  0  0  0  0  0  0  0  0
    0.1038   -9.7315   20.3344 O   0  0  0  0  0  0  0  0  0  0  0  0
    2.6165  -10.0524   16.0225 C   0  0  0  0  0  0  0  0  0  0  0  0
    5.7735  -13.7413   19.4826 O   0  0  0  0  0  0  0  0  0  0  0  0
    2.2924   -9.0726   17.1726 C   0  0  0  0  0  0  0  0  0  0  0  0
    3.6880   -7.9769   13.8083 O   0  0  0  0  0  0  0  0  0  0  0  0
    2.3227   -8.1468   14.3198 C   0  0  0  0  0  0  0  0  0  0  0  0
    2.6095  -11.2102   10.9417 O   0  0  0  0  0  0  0  0  0  0  0  0
  1  3  1  0
  2  3  1  0
  2 13  1  0
  2 19  2  3
  4  7  1  0
  4 11  1  0
  4 17  1  0
  4 18  1  0
  5 12  1  0
  6  9  2  0
  6 11  1  0
  6 22  1  0
  8 14  1  0
 10 12  1  0
 10 14  1  0
 10 20  1  0
 11 15  1  0
 13 21  1  0
 13 25  1  0
 14 23  1  0
 16 18  1  0
 18 21  1  0
 19 26  1  0
 21 23  1  0
 24 25  1  0
M  END
$$$$
