
     RDKit          3D

 28 31  0  0  0  0  0  0  0  0999 V2000
    1.7118   20.3345  -32.0672 C   0  0  0  0  0  0  0  0  0  0  0  0
   -1.1516   24.1837  -31.6351 C   0  0  0  0  0  0  0  0  0  0  0  0
   -0.3824   21.5632  -31.0501 C   0  0  0  0  0  0  0  0  0  0  0  0
    3.4612   19.3151  -33.4177 C   0  0  0  0  0  0  0  0  0  0  0  0
    2.9191   19.7233  -32.2140 O   0  0  0  0  0  0  0  0  0  0  0  0
   -4.4671   26.0600  -28.8310 O   0  0  0  0  0  0  0  0  0  0  0  0
    1.0455   18.2295  -31.1060 N   0  0  0  0  0  0  0  0  0  0  0  0
    3.5562   20.2194  -34.4726 C   0  0  0  0  0  0  0  0  0  0  0  0
   -0.9626   22.3167  -30.0222 C   0  0  0  0  0  0  0  0  0  0  0  0
    1.3871   21.5887  -32.5939 O   0  0  0  0  0  0  0  0  0  0  0  0
    3.9533   18.0044  -33.5537 C   0  0  0  0  0  0  0  0  0  0  0  0
    0.7558   19.5649  -31.3945 C   0  0  0  0  0  0  0  0  0  0  0  0
   -0.2978   23.4833  -32.4932 C   0  0  0  0  0  0  0  0  0  0  0  0
    4.5490   17.6157  -34.7577 C   0  0  0  0  0  0  0  0  0  0  0  0
   -0.9307   21.8830  -28.8101 O   0  0  0  0  0  0  0  0  0  0  0  0
   -1.4441   23.5740  -30.3607 C   0  0  0  0  0  0  0  0  0  0  0  0
   -1.9169   25.4139  -31.6054 C   0  0  0  0  0  0  0  0  0  0  0  0
    4.1621   19.8317  -35.6694 C   0  0  0  0  0  0  0  0  0  0  0  0
   -2.6860   25.5347  -30.3401 C   0  0  0  0  0  0  0  0  0  0  0  0
   -1.6649   19.5170  -30.7772 O   0  0  0  0  0  0  0  0  0  0  0  0
   -3.7837   27.5872  -30.2429 O   0  0  0  0  0  0  0  0  0  0  0  0
   -2.8235   23.9823  -28.4609 O   0  0  0  0  0  0  0  0  0  0  0  0
   -3.6611   26.4572  -29.7789 C   0  0  0  0  0  0  0  0  0  0  0  0
   -2.3460   24.3676  -29.5970 C   0  0  0  0  0  0  0  0  0  0  0  0
   -0.4264   20.1705  -30.9891 C   0  0  0  0  0  0  0  0  0  0  0  0
    4.6581   18.5341  -35.8305 C   0  0  0  0  0  0  0  0  0  0  0  0
    0.2414   22.2448  -32.1317 C   0  0  0  0  0  0  0  0  0  0  0  0
   -1.8502   18.1327  -31.1287 C   0  0  0  0  0  0  0  0  0  0  0  0
  1  5  1  0
  1 10  1  0
  1 12  2  0
  2 13  1  0
  2 16  2  0
  2 17  1  0
  3  9  1  0
  3 25  1  0
  3 27  1  0
  4  5  1  0
  4  8  1  0
  4 11  2  0
  6 23  2  0
  7 12  1  0
  8 18  2  0
  9 15  1  0
  9 16  1  0
 10 27  1  0
 11 14  1  0
 12 25  1  0
 13 27  1  0
 14 26  2  0
 16 24  1  0
 17 19  1  0
 18 26  1  0
 19 23  1  0
 19 24  2  0
 20 25  1  0
 20 28  1  0
 21 23  1  0
 22 24  1  0
M  END
$$$$
