
     RDKit          3D

 35 38  0  0  0  0  0  0  0  0999 V2000
    3.1325   17.1993  -31.8031 O   0  0  0  0  0  0  0  0  0  0  0  0
   -1.8947   24.6573  -30.9268 C   0  0  0  0  0  0  0  0  0  0  0  0
    4.8196   17.9991  -35.6005 C   0  0  0  0  0  0  0  0  0  0  0  0
    1.8063   20.3630  -32.3922 C   0  0  0  0  0  0  0  0  0  0  0  0
   -1.9441   23.6142  -29.9599 C   0  0  0  0  0  0  0  0  0  0  0  0
    5.5417   27.6401  -32.1280 O   0  0  0  0  0  0  0  0  0  0  0  0
    0.4340   22.4297  -32.1447 C   0  0  0  0  0  0  0  0  0  0  0  0
   -3.1093   26.6274  -30.1083 C   0  0  0  0  0  0  0  0  0  0  0  0
   -2.6669   19.0159  -30.8921 C   0  0  0  0  0  0  0  0  0  0  0  0
   -2.7992   23.8302  -28.9070 C   0  0  0  0  0  0  0  0  0  0  0  0
   -0.3854   18.8888  -31.4882 C   0  0  0  0  0  0  0  0  0  0  0  0
    0.7395   21.0546  -31.8731 N   0  0  0  0  0  0  0  0  0  0  0  0
    3.6771   20.1300  -35.5309 C   0  0  0  0  0  0  0  0  0  0  0  0
    5.2054   26.4439  -32.4671 C   0  0  0  0  0  0  0  0  0  0  0  0
   -2.3632   25.9065  -30.9163 N   0  0  0  0  0  0  0  0  0  0  0  0
    2.9913   18.3354  -32.3323 C   0  0  0  0  0  0  0  0  0  0  0  0
   -1.1923   24.2681  -32.1355 N   0  0  0  0  0  0  0  0  0  0  0  0
   -3.6563   26.1582  -28.9492 C   0  0  0  0  0  0  0  0  0  0  0  0
   -1.5907   18.2453  -31.3243 C   0  0  0  0  0  0  0  0  0  0  0  0
    4.0196   26.7110  -34.5019 O   0  0  0  0  0  0  0  0  0  0  0  0
   -0.8994   22.9351  -32.5126 C   0  0  0  0  0  0  0  0  0  0  0  0
    5.2946   26.1639  -34.0060 C   0  0  0  0  0  0  0  0  0  0  0  0
    4.4873   19.2245  -36.2245 C   0  0  0  0  0  0  0  0  0  0  0  0
    4.3697   17.7398  -34.3270 C   0  0  0  0  0  0  0  0  0  0  0  0
   -1.3016   20.9818  -30.6860 C   0  0  0  0  0  0  0  0  0  0  0  0
    3.1560   19.8411  -34.2520 C   0  0  0  0  0  0  0  0  0  0  0  0
   -3.5187   24.8886  -28.5322 C   0  0  0  0  0  0  0  0  0  0  0  0
    2.2976   20.7002  -33.5962 N   0  0  0  0  0  0  0  0  0  0  0  0
   -0.2020   22.2675  -29.0956 O   0  0  0  0  0  0  0  0  0  0  0  0
   -1.1529   22.3438  -30.0501 C   0  0  0  0  0  0  0  0  0  0  0  0
    3.5445   18.6188  -33.6761 C   0  0  0  0  0  0  0  0  0  0  0  0
   -0.2723   20.2401  -31.3004 C   0  0  0  0  0  0  0  0  0  0  0  0
   -2.5205   20.3494  -30.5846 C   0  0  0  0  0  0  0  0  0  0  0  0
    4.3249   25.7298  -31.8416 O   0  0  0  0  0  0  0  0  0  0  0  0
    2.2905   19.3086  -31.7182 N   0  0  0  0  0  0  0  0  0  0  0  0
  1 16  2  0
  2  5  1  0
  2 15  1  0
  2 17  2  3
  3 23  2  0
  3 24  1  0
  4 12  1  0
  4 28  2  0
  4 35  1  0
  5 10  2  0
  5 30  1  0
  6 14  2  0
  7 12  1  0
  7 21  1  0
  8 15  2  0
  8 18  1  0
  9 19  1  0
  9 33  1  0
 10 27  1  0
 11 19  2  0
 11 32  1  0
 12 32  1  0
 13 23  1  0
 13 26  2  0
 14 22  1  0
 14 34  1  0
 16 31  1  0
 16 35  1  0
 17 21  1  0
 18 27  2  0
 20 22  1  0
 24 31  2  0
 25 30  1  0
 25 32  1  0
 25 33  2  0
 26 28  1  0
 26 31  1  0
 29 30  1  0
M  END
$$$$
