
     RDKit          3D

 28 29  0  0  0  0  0  0  0  0999 V2000
  -11.9185   -5.2447    1.1180 C   0  0  0  0  0  0  0  0  0  0  0  0
  -18.9890   -6.3112    5.5698 C   0  0  0  0  0  0  0  0  0  0  0  0
  -11.8937   -2.7350   -0.8139 C   0  0  0  0  0  0  0  0  0  0  0  0
  -22.8403   -5.8353    4.8417 O   0  0  0  0  0  0  0  0  0  0  0  0
  -11.2826   -6.2015    3.3950 C   0  0  0  0  0  0  0  0  0  0  0  0
  -19.9525   -5.8611    6.6070 C   0  0  0  0  0  0  0  0  0  0  0  0
  -12.1777   -2.8502   -2.1375 O   0  0  0  0  0  0  0  0  0  0  0  0
  -11.3725   -0.8805   -2.8345 O   0  0  0  0  0  0  0  0  0  0  0  0
  -19.3293   -4.5553    3.9843 F   0  0  0  0  0  0  0  0  0  0  0  0
  -19.3338   -5.9657    4.1351 C   0  0  0  0  0  0  0  0  0  0  0  0
  -11.9864   -1.8454   -3.1461 C   0  0  0  0  0  0  0  0  0  0  0  0
  -21.2468   -6.6496    6.3240 C   0  0  0  0  0  0  0  0  0  0  0  0
  -12.6007   -2.0042   -4.2895 C   0  0  0  0  0  0  0  0  0  0  0  0
  -10.4074   -6.6557    4.1958 O   0  0  0  0  0  0  0  0  0  0  0  0
  -17.0110   -6.1764    4.2965 C   0  0  0  0  0  0  0  0  0  0  0  0
  -21.7789   -6.4400    4.8581 C   0  0  0  0  0  0  0  0  0  0  0  0
  -12.6157   -6.6086    3.7524 C   0  0  0  0  0  0  0  0  0  0  0  0
  -18.1235   -6.4617    3.4318 N   0  0  0  0  0  0  0  0  0  0  0  0
  -15.0260   -7.3381    6.0120 O   0  0  0  0  0  0  0  0  0  0  0  0
  -20.9260   -7.2367    2.6406 C   0  0  0  0  0  0  0  0  0  0  0  0
  -17.5770   -6.0332    5.6485 C   0  0  0  0  0  0  0  0  0  0  0  0
  -11.1107   -5.4080    2.2376 O   0  0  0  0  0  0  0  0  0  0  0  0
  -22.3280   -6.7025    2.2406 C   0  0  0  0  0  0  0  0  0  0  0  0
  -13.1955   -6.1016    5.0176 C   0  0  0  0  0  0  0  0  0  0  0  0
  -20.7700   -6.5193    3.7937 C   0  0  0  0  0  0  0  0  0  0  0  0
  -14.6762   -6.3970    5.1726 C   0  0  0  0  0  0  0  0  0  0  0  0
  -15.5625   -5.9145    4.1428 C   0  0  0  0  0  0  0  0  0  0  0  0
  -11.8304   -4.0897    0.1472 C   0  0  0  0  0  0  0  0  0  0  0  0
  1 22  1  0
  1 28  2  0
  2  6  1  0
  2 10  1  0
  2 21  1  0
  3  7  1  0
  3 28  2  0
  4 16  2  0
  5 14  2  0
  5 17  1  0
  5 22  1  0
  6 12  1  0
  7 11  1  0
  8 11  2  0
  9 10  1  0
 10 18  1  0
 10 25  1  0
 11 13  1  0
 12 16  1  0
 15 18  1  0
 15 21  1  0
 15 27  1  0
 16 25  1  0
 17 24  1  0
 19 26  1  0
 20 23  1  0
 20 25  1  0
 24 26  1  0
 26 27  1  0
M  END
$$$$
