
     RDKit          3D

 12 12  0  0  0  0  0  0  0  0999 V2000
  -18.0821   -4.7747    4.9902 C   0  0  0  0  0  0  0  0  0  0  0  0
  -18.7680   -7.3506    4.1946 C   0  0  0  0  0  0  0  0  0  0  0  0
  -17.4527   -6.9214    4.1222 C   0  0  0  0  0  0  0  0  0  0  0  0
  -12.4051   -6.5506    4.7622 C   0  0  0  0  0  0  0  0  0  0  0  0
  -19.8036   -6.4383    4.6730 C   0  0  0  0  0  0  0  0  0  0  0  0
  -17.1186   -5.6264    4.5048 C   0  0  0  0  0  0  0  0  0  0  0  0
  -13.6969   -6.4905    4.2788 N   0  0  0  0  0  0  0  0  0  0  0  0
  -12.1096   -6.6977    5.9299 O   0  0  0  0  0  0  0  0  0  0  0  0
  -11.4854   -6.5597    3.7671 N   0  0  0  0  0  0  0  0  0  0  0  0
  -19.3918   -5.1896    5.0675 C   0  0  0  0  0  0  0  0  0  0  0  0
  -14.7678   -6.2647    5.0959 C   0  0  0  0  0  0  0  0  0  0  0  0
  -15.6441   -5.2001    4.4476 C   0  0  0  0  0  0  0  0  0  0  0  0
  1  6  1  0
  1 10  2  0
  2  3  1  0
  2  5  2  0
  3  6  2  0
  4  7  1  0
  4  8  2  0
  4  9  1  0
  5 10  1  0
  6 12  1  0
  7 11  1  0
 11 12  1  0
M  END
$$$$
