
     RDKit          3D

 12 12  0  0  0  0  0  0  0  0999 V2000
  -12.3319   -7.4749    6.3396 O   0  0  0  0  0  0  0  0  0  0  0  0
  -19.5099   -6.3253    4.0430 O   0  0  0  0  0  0  0  0  0  0  0  0
  -11.9118   -6.9277    4.1263 O   0  0  0  0  0  0  0  0  0  0  0  0
  -17.3300   -5.1441    4.2993 C   0  0  0  0  0  0  0  0  0  0  0  0
  -17.4188   -6.7784    4.4404 N   0  0  0  0  0  0  0  0  0  0  0  0
  -14.0121   -6.3031    5.1951 C   0  0  0  0  0  0  0  0  0  0  0  0
  -15.8441   -5.1262    4.3842 C   0  0  0  0  0  0  0  0  0  0  0  0
  -18.0260   -6.3280    4.2150 C   0  0  0  0  0  0  0  0  0  0  0  0
  -15.9280   -6.7306    4.8964 C   0  0  0  0  0  0  0  0  0  0  0  0
  -12.5071   -6.5803    5.3326 C   0  0  0  0  0  0  0  0  0  0  0  0
  -15.2514   -6.0469    4.7507 C   0  0  0  0  0  0  0  0  0  0  0  0
  -19.7809   -7.8659    4.1763 C   0  0  0  0  0  0  0  0  0  0  0  0
  1 10  1  0
  2  8  1  0
  2 12  1  0
  3 10  1  0
  4  7  1  0
  4  8  1  0
  5  8  2  0
  5  9  1  0
  6 10  1  0
  6 11  1  0
  7 11  1  0
  9 11  2  0
M  END
$$$$
