
     RDKit          3D

 15 16  0  0  0  0  0  0  0  0999 V2000
  -12.2280   -7.2488    6.3159 N   0  0  0  0  0  0  0  0  0  0  0  0
   -9.1479   -7.4439    4.5397 N   0  0  0  0  0  0  0  0  0  0  0  0
  -16.6115   -5.1676    4.3630 C   0  0  0  0  0  0  0  0  0  0  0  0
  -18.8520   -7.6623    4.2742 C   0  0  0  0  0  0  0  0  0  0  0  0
  -11.2988   -7.0482    3.9440 N   0  0  0  0  0  0  0  0  0  0  0  0
  -17.6973   -6.9446    4.4246 C   0  0  0  0  0  0  0  0  0  0  0  0
  -17.7018   -5.8300    3.8395 C   0  0  0  0  0  0  0  0  0  0  0  0
  -14.3679   -6.4008    4.9183 N   0  0  0  0  0  0  0  0  0  0  0  0
  -10.2178   -6.9573    4.7273 C   0  0  0  0  0  0  0  0  0  0  0  0
  -13.1221   -6.5375    5.3513 C   0  0  0  0  0  0  0  0  0  0  0  0
  -16.3612   -6.7533    4.9824 C   0  0  0  0  0  0  0  0  0  0  0  0
  -19.0360   -5.6112    3.4285 C   0  0  0  0  0  0  0  0  0  0  0  0
  -19.5055   -7.0301    3.3981 C   0  0  0  0  0  0  0  0  0  0  0  0
  -15.5307   -6.0267    4.6089 C   0  0  0  0  0  0  0  0  0  0  0  0
  -11.8880   -6.7084    5.0137 C   0  0  0  0  0  0  0  0  0  0  0  0
  1 15  1  0
  2  9  2  0
  3  7  1  0
  3 14  1  0
  4  6  1  0
  4 13  1  0
  5  9  1  0
  5 15  1  0
  6  7  2  0
  6 11  1  0
  7 12  1  0
  8 10  1  0
  8 14  1  0
 10 15  1  0
 11 14  1  0
 12 13  1  0
M  END
$$$$
