
     RDKit          3D

 19 21  0  0  0  0  0  0  0  0999 V2000
  -21.6380   -8.0623    5.8609 C   0  0  0  0  0  0  0  0  0  0  0  0
  -18.9325   -7.5342    2.7925 C   0  0  0  0  0  0  0  0  0  0  0  0
  -11.7833   -5.3748    6.5974 O   0  0  0  0  0  0  0  0  0  0  0  0
  -14.8001   -5.8785    4.9518 C   0  0  0  0  0  0  0  0  0  0  0  0
  -12.2666   -6.5434    5.5558 C   0  0  0  0  0  0  0  0  0  0  0  0
  -20.7632   -8.8724    3.8068 C   0  0  0  0  0  0  0  0  0  0  0  0
  -19.7992   -8.0574    3.9221 C   0  0  0  0  0  0  0  0  0  0  0  0
  -11.5513   -7.0578    3.4468 O   0  0  0  0  0  0  0  0  0  0  0  0
  -11.1392   -6.8799    4.3870 C   0  0  0  0  0  0  0  0  0  0  0  0
  -16.0310   -6.1744    4.6252 C   0  0  0  0  0  0  0  0  0  0  0  0
   -9.9898   -7.1302    4.6939 O   0  0  0  0  0  0  0  0  0  0  0  0
  -19.5788   -7.2848    4.9971 C   0  0  0  0  0  0  0  0  0  0  0  0
  -17.1513   -6.2966    5.6393 C   0  0  0  0  0  0  0  0  0  0  0  0
  -16.6622   -6.1784    3.4689 C   0  0  0  0  0  0  0  0  0  0  0  0
  -13.7669   -6.6075    4.9854 N   0  0  0  0  0  0  0  0  0  0  0  0
  -20.6212   -7.1862    5.8380 C   0  0  0  0  0  0  0  0  0  0  0  0
  -18.3220   -6.7955    5.0237 C   0  0  0  0  0  0  0  0  0  0  0  0
  -17.8826   -6.7372    3.5966 C   0  0  0  0  0  0  0  0  0  0  0  0
  -21.8041   -8.8948    4.7797 C   0  0  0  0  0  0  0  0  0  0  0  0
  1 16  1  0
  1 19  1  0
  2  7  1  0
  2 18  1  0
  3  5  2  0
  4 10  1  0
  4 15  2  3
  5  9  1  0
  5 15  1  0
  6  7  1  0
  6 19  2  0
  7 12  1  0
  8  9  2  0
  9 11  1  0
 10 13  1  0
 10 14  1  0
 12 16  1  0
 12 17  1  0
 13 17  1  0
 14 18  1  0
 17 18  2  0
M  END
$$$$
