
     RDKit          3D

 10  9  0  0  0  0  0  0  0  0999 V2000
  -18.2554   -5.0510    4.0951 O   0  0  0  0  0  0  0  0  0  0  0  0
  -12.2887   -7.2588    6.2927 O   0  0  0  0  0  0  0  0  0  0  0  0
  -11.5234   -6.8797    4.2881 O   0  0  0  0  0  0  0  0  0  0  0  0
  -18.4076   -7.4096    4.1195 C   0  0  0  0  0  0  0  0  0  0  0  0
  -13.9935   -6.5186    4.9764 C   0  0  0  0  0  0  0  0  0  0  0  0
  -16.1768   -6.5540    5.3031 C   0  0  0  0  0  0  0  0  0  0  0  0
  -17.7762   -6.2580    3.7122 C   0  0  0  0  0  0  0  0  0  0  0  0
  -16.3679   -6.1580    3.9222 O   0  0  0  0  0  0  0  0  0  0  0  0
  -14.9572   -6.9581    5.3443 C   0  0  0  0  0  0  0  0  0  0  0  0
  -12.3544   -6.5844    5.4084 C   0  0  0  0  0  0  0  0  0  0  0  0
  1  7  1  0
  2 10  1  0
  3 10  1  0
  4  7  1  0
  5  9  1  0
  5 10  1  0
  6  8  1  0
  6  9  1  0
  7  8  1  0
M  END
$$$$
