
     RDKit          3D

 14 14  0  0  0  0  0  0  0  0999 V2000
  -18.6882   15.2914  -28.3342 C   0  0  0  0  0  0  0  0  0  0  0  0
  -17.9746   17.9712  -23.9067 Cl  0  0  0  0  0  0  0  0  0  0  0  0
  -21.4101   15.9970  -28.6063 C   0  0  0  0  0  0  0  0  0  0  0  0
  -19.2436   16.0985  -27.3752 C   0  0  0  0  0  0  0  0  0  0  0  0
  -16.5014   15.5114  -27.3363 C   0  0  0  0  0  0  0  0  0  0  0  0
  -21.0950   15.8464  -30.9380 O   0  0  0  0  0  0  0  0  0  0  0  0
  -20.6560   17.4864  -24.8375 S   0  0  0  0  0  0  0  0  0  0  0  0
  -18.4287   16.5758  -26.3095 C   0  0  0  0  0  0  0  0  0  0  0  0
  -21.6990   16.4996  -29.9398 C   0  0  0  0  0  0  0  0  0  0  0  0
  -20.6664   16.4097  -27.5787 C   0  0  0  0  0  0  0  0  0  0  0  0
  -18.9261   17.3076  -25.1565 C   0  0  0  0  0  0  0  0  0  0  0  0
  -22.6950   17.2897  -30.1570 O   0  0  0  0  0  0  0  0  0  0  0  0
  -17.0552   16.3170  -26.3592 C   0  0  0  0  0  0  0  0  0  0  0  0
  -17.3423   14.9785  -28.3480 C   0  0  0  0  0  0  0  0  0  0  0  0
  1  4  1  0
  1 14  2  0
  2 11  1  0
  3  9  1  0
  3 10  1  0
  4  8  1  0
  4 10  2  3
  5 13  2  0
  5 14  1  0
  6  9  2  0
  7 11  1  0
  8 11  2  3
  8 13  1  0
  9 12  1  0
M  END
$$$$
