
     RDKit          3D

 25 27  0  0  0  0  0  0  0  0999 V2000
  -17.3344   16.3268  -29.1689 C   0  0  0  0  0  0  0  0  0  0  0  0
  -18.6926   16.5095  -29.5780 C   0  0  0  0  0  0  0  0  0  0  0  0
  -19.5868   16.6789  -28.3971 C   0  0  0  0  0  0  0  0  0  0  0  0
  -22.6139   15.7943  -30.1601 C   0  0  0  0  0  0  0  0  0  0  0  0
  -17.1133   16.1612  -27.8354 N   0  0  0  0  0  0  0  0  0  0  0  0
  -20.2657   17.2148  -26.1444 C   0  0  0  0  0  0  0  0  0  0  0  0
  -24.9330   16.2477  -29.8454 N   0  0  0  0  0  0  0  0  0  0  0  0
  -24.1902   14.0098  -29.9648 C   0  0  0  0  0  0  0  0  0  0  0  0
  -21.2302   16.1985  -30.1784 C   0  0  0  0  0  0  0  0  0  0  0  0
  -15.2149   16.6108  -26.3496 C   0  0  0  0  0  0  0  0  0  0  0  0
  -16.3247   17.0643  -25.2860 C   0  0  0  0  0  0  0  0  0  0  0  0
  -14.3622   17.2319  -27.4972 C   0  0  0  0  0  0  0  0  0  0  0  0
  -25.1945   14.9174  -29.7866 C   0  0  0  0  0  0  0  0  0  0  0  0
  -19.1220   17.5022  -30.6451 C   0  0  0  0  0  0  0  0  0  0  0  0
  -18.1169   18.6008  -30.8016 C   0  0  0  0  0  0  0  0  0  0  0  0
  -18.5521   19.8019  -30.7105 O   0  0  0  0  0  0  0  0  0  0  0  0
  -20.9320   16.5942  -28.7934 C   0  0  0  0  0  0  0  0  0  0  0  0
  -23.6747   16.6605  -30.0592 C   0  0  0  0  0  0  0  0  0  0  0  0
  -22.8942   14.4395  -30.1578 C   0  0  0  0  0  0  0  0  0  0  0  0
  -16.0695   15.5333  -27.1216 C   0  0  0  0  0  0  0  0  0  0  0  0
  -20.4467   16.9541  -31.1625 C   0  0  0  0  0  0  0  0  0  0  0  0
  -16.8677   18.4103  -31.1488 O   0  0  0  0  0  0  0  0  0  0  0  0
  -21.8773   16.8454  -27.8282 C   0  0  0  0  0  0  0  0  0  0  0  0
  -19.3263   16.9731  -27.0821 C   0  0  0  0  0  0  0  0  0  0  0  0
  -21.6285   17.1332  -26.5188 C   0  0  0  0  0  0  0  0  0  0  0  0
  1  2  1  0
  1  5  1  0
  2  3  1  0
  2 14  1  0
  3 17  1  0
  3 24  2  0
  4  9  1  0
  4 18  1  0
  4 19  2  0
  5 20  1  0
  6 24  1  0
  6 25  2  0
  7 13  1  0
  7 18  2  0
  8 13  2  0
  8 19  1  0
  9 17  1  0
  9 21  1  0
 10 11  1  0
 10 12  1  0
 10 20  1  0
 14 15  1  0
 14 21  1  0
 15 16  2  0
 15 22  1  0
 17 23  2  0
 23 25  1  0
M  END
$$$$
