
     RDKit          3D

 35 36  0  0  0  0  0  0  0  0999 V2000
  -22.5248   18.7698  -28.7117 C   0  0  0  0  0  0  0  0  0  0  0  0
  -19.5794   15.8810  -29.2797 C   0  0  0  0  0  0  0  0  0  0  0  0
  -19.6584   16.1260  -30.7697 C   0  0  0  0  0  0  0  0  0  0  0  0
  -19.3382   18.9020  -23.8787 O   0  0  0  0  0  0  0  0  0  0  0  0
  -19.0068   16.7177  -26.1461 O   0  0  0  0  0  0  0  0  0  0  0  0
  -21.9123   19.8096  -27.6891 C   0  0  0  0  0  0  0  0  0  0  0  0
  -18.0955   16.3895  -27.1603 C   0  0  0  0  0  0  0  0  0  0  0  0
  -19.5254   13.6219  -33.5688 C   0  0  0  0  0  0  0  0  0  0  0  0
  -20.1196   17.5673  -26.4007 N   0  0  0  0  0  0  0  0  0  0  0  0
  -20.4529   12.7191  -32.9917 O   0  0  0  0  0  0  0  0  0  0  0  0
  -22.9716   17.5775  -29.7538 C   0  0  0  0  0  0  0  0  0  0  0  0
  -14.4776   16.0548  -27.2035 F   0  0  0  0  0  0  0  0  0  0  0  0
  -20.3191   18.8926  -26.1125 C   0  0  0  0  0  0  0  0  0  0  0  0
  -19.1573   15.0237  -31.6023 C   0  0  0  0  0  0  0  0  0  0  0  0
  -19.7248   14.9859  -32.9947 C   0  0  0  0  0  0  0  0  0  0  0  0
  -23.3616   15.2324  -28.6187 C   0  0  0  0  0  0  0  0  0  0  0  0
  -19.7400   18.5294  -27.2791 O   0  0  0  0  0  0  0  0  0  0  0  0
  -23.5785   18.1255  -30.8126 O   0  0  0  0  0  0  0  0  0  0  0  0
  -19.6184   19.4559  -24.9411 C   0  0  0  0  0  0  0  0  0  0  0  0
  -23.9395   16.5617  -29.0815 C   0  0  0  0  0  0  0  0  0  0  0  0
  -20.5694   20.9632  -24.8275 N   0  0  0  0  0  0  0  0  0  0  0  0
  -21.8420   16.8129  -30.1597 N   0  0  0  0  0  0  0  0  0  0  0  0
  -16.8204   16.1675  -26.6887 C   0  0  0  0  0  0  0  0  0  0  0  0
  -25.2665   16.5287  -28.9423 O   0  0  0  0  0  0  0  0  0  0  0  0
  -25.6034   15.5329  -27.8496 C   0  0  0  0  0  0  0  0  0  0  0  0
  -17.3030   16.7590  -29.3604 C   0  0  0  0  0  0  0  0  0  0  0  0
  -21.1708   16.6862  -25.8997 C   0  0  0  0  0  0  0  0  0  0  0  0
  -24.5280   14.4807  -28.0541 C   0  0  0  0  0  0  0  0  0  0  0  0
  -16.0236   16.7226  -28.8916 C   0  0  0  0  0  0  0  0  0  0  0  0
  -20.4167   21.3891  -26.2820 C   0  0  0  0  0  0  0  0  0  0  0  0
  -21.0193   16.5587  -31.2398 C   0  0  0  0  0  0  0  0  0  0  0  0
  -21.8078   19.3013  -26.2444 C   0  0  0  0  0  0  0  0  0  0  0  0
  -15.7874   16.3264  -27.5720 C   0  0  0  0  0  0  0  0  0  0  0  0
  -18.3574   16.3775  -28.5635 C   0  0  0  0  0  0  0  0  0  0  0  0
  -20.7573   20.8966  -27.7240 C   0  0  0  0  0  0  0  0  0  0  0  0
  1  6  1  0
  1 11  1  0
  2  3  1  0
  2 34  2  3
  3 14  1  0
  3 31  1  0
  4 19  2  0
  5  7  1  0
  5  9  1  0
  6 32  1  0
  6 35  1  0
  7 23  1  0
  7 34  1  0
  8 10  1  0
  8 15  1  0
  9 27  1  0
 11 18  1  0
 11 20  1  0
 11 22  1  0
 12 33  1  0
 13 17  1  0
 13 19  1  0
 13 32  1  0
 14 15  1  0
 16 20  1  0
 16 28  1  0
 20 24  1  0
 21 30  1  0
 22 31  1  0
 23 33  2  0
 24 25  1  0
 25 28  1  0
 26 29  2  0
 26 34  1  0
 29 33  1  0
 30 35  1  0
M  END
$$$$
