
     RDKit          3D

 31 35  0  0  0  0  0  0  0  0999 V2000
  -21.7321   15.9350  -31.0183 C   0  0  0  0  0  0  0  0  0  0  0  0
  -21.6279   17.5938  -29.3218 C   0  0  0  0  0  0  0  0  0  0  0  0
  -18.2728   16.0399  -29.1836 C   0  0  0  0  0  0  0  0  0  0  0  0
  -15.9067   17.3337  -26.5560 C   0  0  0  0  0  0  0  0  0  0  0  0
  -22.0778   16.1944  -27.0230 C   0  0  0  0  0  0  0  0  0  0  0  0
  -15.7922   17.9088  -27.8454 C   0  0  0  0  0  0  0  0  0  0  0  0
  -14.3867   17.8445  -28.3779 C   0  0  0  0  0  0  0  0  0  0  0  0
  -20.3596   17.0684  -28.7147 C   0  0  0  0  0  0  0  0  0  0  0  0
  -19.4370   17.0793  -31.6242 O   0  0  0  0  0  0  0  0  0  0  0  0
  -22.4707   18.3106  -28.2480 C   0  0  0  0  0  0  0  0  0  0  0  0
  -22.8111   15.6992  -28.2773 C   0  0  0  0  0  0  0  0  0  0  0  0
  -16.6768   14.3003  -28.3928 C   0  0  0  0  0  0  0  0  0  0  0  0
  -19.8010   14.8617  -31.9410 C   0  0  0  0  0  0  0  0  0  0  0  0
  -18.5299   17.5165  -26.7769 C   0  0  0  0  0  0  0  0  0  0  0  0
  -13.6370   16.6167  -27.9220 C   0  0  0  0  0  0  0  0  0  0  0  0
  -24.1904   16.4596  -28.1042 C   0  0  0  0  0  0  0  0  0  0  0  0
  -14.4591   15.4584  -27.4675 C   0  0  0  0  0  0  0  0  0  0  0  0
  -16.4344   16.6881  -27.6577 C   0  0  0  0  0  0  0  0  0  0  0  0
  -22.3367   16.2421  -29.6695 C   0  0  0  0  0  0  0  0  0  0  0  0
  -15.7388   15.5621  -28.3470 C   0  0  0  0  0  0  0  0  0  0  0  0
  -17.9096   16.5940  -27.8257 C   0  0  0  0  0  0  0  0  0  0  0  0
  -22.0680   17.6796  -26.8517 C   0  0  0  0  0  0  0  0  0  0  0  0
  -20.1589   16.0399  -30.9851 C   0  0  0  0  0  0  0  0  0  0  0  0
  -19.7570   15.9624  -29.5135 C   0  0  0  0  0  0  0  0  0  0  0  0
  -14.5800   14.3352  -26.5072 C   0  0  0  0  0  0  0  0  0  0  0  0
  -17.6747   14.7001  -29.5418 C   0  0  0  0  0  0  0  0  0  0  0  0
  -21.2171   15.3411  -26.3241 F   0  0  0  0  0  0  0  0  0  0  0  0
  -15.3164   15.8093  -29.7784 C   0  0  0  0  0  0  0  0  0  0  0  0
  -23.9502   17.9183  -28.4577 C   0  0  0  0  0  0  0  0  0  0  0  0
  -22.2045   19.7840  -28.2931 C   0  0  0  0  0  0  0  0  0  0  0  0
  -21.3735   18.5482  -30.4560 C   0  0  0  0  0  0  0  0  0  0  0  0
  1 19  1  0
  1 23  1  0
  2  8  1  0
  2 10  1  0
  2 19  1  0
  2 31  1  0
  3 21  1  0
  3 24  1  0
  3 26  1  0
  4 18  1  0
  5 11  1  0
  5 22  1  0
  5 27  1  0
  6  7  1  0
  6 18  1  0
  7 15  1  0
  8 24  1  0
  9 23  1  0
 10 22  1  0
 10 29  1  0
 10 30  1  0
 11 16  1  0
 11 19  1  0
 12 20  1  0
 12 26  1  0
 13 23  1  0
 14 21  1  0
 15 17  1  0
 16 29  1  0
 17 20  1  0
 17 25  1  0
 18 20  1  0
 18 21  1  0
 20 28  1  0
 23 24  1  0
M  END
$$$$
