
     RDKit          3D

 20 22  0  0  0  0  0  0  0  0999 V2000
  -21.6299   17.6421  -27.5779 N   0  0  0  0  0  0  0  0  0  0  0  0
  -15.0431   18.0902  -28.1320 C   0  0  0  0  0  0  0  0  0  0  0  0
  -15.7958   17.0090  -28.7492 C   0  0  0  0  0  0  0  0  0  0  0  0
  -21.6058   18.0991  -26.2909 C   0  0  0  0  0  0  0  0  0  0  0  0
  -19.5587   16.9141  -30.2769 C   0  0  0  0  0  0  0  0  0  0  0  0
  -19.6610   16.8621  -25.8710 N   0  0  0  0  0  0  0  0  0  0  0  0
  -20.6262   16.4974  -29.3700 N   0  0  0  0  0  0  0  0  0  0  0  0
  -18.0229   14.9808  -29.7849 C   0  0  0  0  0  0  0  0  0  0  0  0
  -15.5843   15.8476  -27.9196 N   0  0  0  0  0  0  0  0  0  0  0  0
  -18.9101   15.1735  -27.4060 C   0  0  0  0  0  0  0  0  0  0  0  0
  -19.7520   16.2995  -27.0979 C   0  0  0  0  0  0  0  0  0  0  0  0
  -16.3699   13.7828  -27.1844 O   0  0  0  0  0  0  0  0  0  0  0  0
  -20.0378   15.2817  -31.9711 C   0  0  0  0  0  0  0  0  0  0  0  0
  -13.8756   17.4162  -27.4173 C   0  0  0  0  0  0  0  0  0  0  0  0
  -17.8124   15.1812  -28.3009 C   0  0  0  0  0  0  0  0  0  0  0  0
  -20.6836   16.8035  -28.0218 C   0  0  0  0  0  0  0  0  0  0  0  0
  -16.5253   14.8547  -27.7751 C   0  0  0  0  0  0  0  0  0  0  0  0
  -18.9166   15.6457  -30.9184 C   0  0  0  0  0  0  0  0  0  0  0  0
  -14.4115   16.0554  -27.0673 C   0  0  0  0  0  0  0  0  0  0  0  0
  -20.6022   17.7487  -25.4502 C   0  0  0  0  0  0  0  0  0  0  0  0
  1  4  1  0
  1 16  2  0
  2  3  1  0
  2 14  1  0
  3  9  1  0
  4 20  2  0
  5  7  1  0
  5 18  1  0
  6 11  2  0
  6 20  1  0
  7 16  1  0
  8 15  1  0
  8 18  1  0
  9 17  1  0
  9 19  1  0
 10 11  1  0
 10 15  1  0
 11 16  1  0
 12 17  2  0
 13 18  1  0
 14 19  1  0
 15 17  1  0
M  END
$$$$
