
     RDKit          3D

 29 33  0  0  0  0  0  0  0  0999 V2000
  -16.1187   16.3895  -25.8694 C   0  0  0  0  0  0  0  0  0  0  0  0
  -23.5965   15.3727  -28.2580 C   0  0  0  0  0  0  0  0  0  0  0  0
  -22.3807   15.9288  -30.4314 O   0  0  0  0  0  0  0  0  0  0  0  0
  -19.4741   15.3110  -29.3266 O   0  0  0  0  0  0  0  0  0  0  0  0
  -21.3683   17.8230  -29.5192 C   0  0  0  0  0  0  0  0  0  0  0  0
  -21.9542   16.4474  -29.1457 C   0  0  0  0  0  0  0  0  0  0  0  0
  -19.1024   18.7070  -30.4602 C   0  0  0  0  0  0  0  0  0  0  0  0
  -21.1270   20.0305  -30.1326 O   0  0  0  0  0  0  0  0  0  0  0  0
  -24.0715   14.3689  -28.9106 O   0  0  0  0  0  0  0  0  0  0  0  0
  -14.7934   16.4422  -28.0292 C   0  0  0  0  0  0  0  0  0  0  0  0
  -17.9506   16.8800  -29.6971 N   0  0  0  0  0  0  0  0  0  0  0  0
  -15.6582   15.6063  -27.1026 C   0  0  0  0  0  0  0  0  0  0  0  0
  -25.6908   16.4331  -27.5610 C   0  0  0  0  0  0  0  0  0  0  0  0
  -20.0450   17.7057  -30.0904 C   0  0  0  0  0  0  0  0  0  0  0  0
  -21.9517   19.1369  -29.5108 C   0  0  0  0  0  0  0  0  0  0  0  0
  -24.3896   16.5734  -28.0145 C   0  0  0  0  0  0  0  0  0  0  0  0
  -21.4422   16.1135  -27.7430 C   0  0  0  0  0  0  0  0  0  0  0  0
  -19.7947   19.9545  -30.3449 C   0  0  0  0  0  0  0  0  0  0  0  0
  -23.9503   17.8581  -28.1481 C   0  0  0  0  0  0  0  0  0  0  0  0
  -25.9735   18.8306  -27.4928 C   0  0  0  0  0  0  0  0  0  0  0  0
  -17.6399   18.1610  -30.3185 C   0  0  0  0  0  0  0  0  0  0  0  0
  -19.2498   16.5230  -29.6298 C   0  0  0  0  0  0  0  0  0  0  0  0
  -16.9445   16.2701  -28.9990 C   0  0  0  0  0  0  0  0  0  0  0  0
  -26.5017   17.5561  -27.3090 C   0  0  0  0  0  0  0  0  0  0  0  0
  -15.6502   16.9181  -29.2337 C   0  0  0  0  0  0  0  0  0  0  0  0
  -22.5199   15.0987  -27.3015 C   0  0  0  0  0  0  0  0  0  0  0  0
  -16.9235   15.4619  -27.8945 N   0  0  0  0  0  0  0  0  0  0  0  0
  -24.6814   18.9683  -27.9112 C   0  0  0  0  0  0  0  0  0  0  0  0
  -16.0451   18.0043  -30.2332 C   0  0  0  0  0  0  0  0  0  0  0  0
  1 12  1  0
  2  9  1  0
  2 16  1  0
  2 26  1  0
  3  6  1  0
  4 22  2  0
  5  6  1  0
  5 14  1  0
  5 15  1  0
  6 17  1  0
  7 14  1  0
  7 18  1  0
  7 21  1  0
  8 15  1  0
  8 18  1  0
 10 12  1  0
 10 25  1  0
 11 21  1  0
 11 22  1  0
 11 23  1  0
 12 27  1  0
 13 16  2  0
 13 24  1  0
 14 22  1  0
 16 19  1  0
 17 26  1  0
 19 28  2  0
 20 24  2  0
 20 28  1  0
 21 29  1  0
 23 25  2  0
 23 27  1  0
 25 29  1  0
M  END
$$$$
