
     RDKit          3D

 32 34  0  0  0  0  0  0  0  0999 V2000
  -18.5191   16.6590  -31.6529 C   0  0  0  0  0  0  0  0  0  0  0  0
  -17.7439   15.7413  -30.7347 C   0  0  0  0  0  0  0  0  0  0  0  0
  -22.8206   14.7987  -28.4294 O   0  0  0  0  0  0  0  0  0  0  0  0
  -21.1784   19.4358  -27.6794 C   0  0  0  0  0  0  0  0  0  0  0  0
  -16.3653   13.7669  -27.5092 C   0  0  0  0  0  0  0  0  0  0  0  0
  -20.0007   16.4845  -31.4172 C   0  0  0  0  0  0  0  0  0  0  0  0
  -19.0088   18.2806  -27.7200 C   0  0  0  0  0  0  0  0  0  0  0  0
  -21.9769   18.1752  -28.0264 C   0  0  0  0  0  0  0  0  0  0  0  0
  -17.2198   16.6147  -27.2146 C   0  0  0  0  0  0  0  0  0  0  0  0
  -18.1247   18.1368  -31.7550 C   0  0  0  0  0  0  0  0  0  0  0  0
  -20.6671   16.0485  -32.3646 O   0  0  0  0  0  0  0  0  0  0  0  0
  -16.2592   16.1266  -30.4419 C   0  0  0  0  0  0  0  0  0  0  0  0
  -18.3932   17.1033  -28.2010 C   0  0  0  0  0  0  0  0  0  0  0  0
  -17.3405   17.3131  -25.8597 C   0  0  0  0  0  0  0  0  0  0  0  0
  -20.4810   17.0764  -30.1604 C   0  0  0  0  0  0  0  0  0  0  0  0
  -15.8311   16.4170  -27.8967 C   0  0  0  0  0  0  0  0  0  0  0  0
  -14.7819   15.3920  -28.3013 C   0  0  0  0  0  0  0  0  0  0  0  0
  -15.9163   15.5243  -29.0920 C   0  0  0  0  0  0  0  0  0  0  0  0
  -21.5545   16.7050  -27.5807 C   0  0  0  0  0  0  0  0  0  0  0  0
  -19.3368   18.9906  -32.1374 C   0  0  0  0  0  0  0  0  0  0  0  0
  -19.5385   17.7363  -29.0307 C   0  0  0  0  0  0  0  0  0  0  0  0
  -20.4894   15.7687  -26.9162 C   0  0  0  0  0  0  0  0  0  0  0  0
  -22.7774   15.8793  -27.7965 C   0  0  0  0  0  0  0  0  0  0  0  0
  -20.0521   18.8220  -26.6880 C   0  0  0  0  0  0  0  0  0  0  0  0
  -15.7089   16.4509  -31.8567 C   0  0  0  0  0  0  0  0  0  0  0  0
  -16.9495   18.9068  -31.2757 C   0  0  0  0  0  0  0  0  0  0  0  0
  -18.2002   14.7517  -29.6305 C   0  0  0  0  0  0  0  0  0  0  0  0
  -14.9008   14.1990  -27.3941 C   0  0  0  0  0  0  0  0  0  0  0  0
  -15.1770   17.6480  -27.9222 O   0  0  0  0  0  0  0  0  0  0  0  0
  -16.9470   14.4083  -28.7761 C   0  0  0  0  0  0  0  0  0  0  0  0
  -18.1323   19.6181  -27.9477 C   0  0  0  0  0  0  0  0  0  0  0  0
  -24.0372   16.6243  -27.6872 C   0  0  0  0  0  0  0  0  0  0  0  0
  1  2  1  0
  1  6  1  0
  1 10  1  0
  2 12  1  0
  2 27  1  0
  3 23  2  0
  4  8  1  0
  4 24  1  0
  5 28  1  0
  5 30  1  0
  6 11  2  0
  6 15  1  0
  7 13  1  0
  7 21  1  0
  7 24  1  0
  7 31  1  0
  8 19  2  3
  9 13  1  0
  9 14  1  0
  9 16  1  0
 10 20  1  0
 10 26  1  0
 12 18  1  0
 12 25  1  0
 15 21  1  0
 16 18  1  0
 16 29  1  0
 17 18  1  0
 17 28  1  0
 18 30  1  0
 19 22  1  0
 19 23  1  0
 23 32  1  0
 27 30  1  0
M  END
$$$$
