
     RDKit          3D

 21 22  0  0  0  0  0  0  0  0999 V2000
  -14.3776   14.3154  -27.1288 C   0  0  0  0  0  0  0  0  0  0  0  0
  -18.1190   17.5721  -31.1831 C   0  0  0  0  0  0  0  0  0  0  0  0
  -18.3465   18.5849  -30.1877 O   0  0  0  0  0  0  0  0  0  0  0  0
  -19.0433   15.8715  -27.1753 C   0  0  0  0  0  0  0  0  0  0  0  0
  -22.5325   16.0449  -28.1098 C   0  0  0  0  0  0  0  0  0  0  0  0
  -16.3263   20.0044  -27.6070 C   0  0  0  0  0  0  0  0  0  0  0  0
  -14.8585   17.0063  -26.6184 N   0  0  0  0  0  0  0  0  0  0  0  0
  -17.1665   16.8755  -26.7112 C   0  0  0  0  0  0  0  0  0  0  0  0
  -16.8043   15.6729  -27.1917 C   0  0  0  0  0  0  0  0  0  0  0  0
  -20.3520   15.7393  -27.2127 C   0  0  0  0  0  0  0  0  0  0  0  0
  -18.5128   16.9842  -26.6232 O   0  0  0  0  0  0  0  0  0  0  0  0
  -16.3941   19.0971  -26.5510 O   0  0  0  0  0  0  0  0  0  0  0  0
  -18.0666   15.0269  -27.5878 N   0  0  0  0  0  0  0  0  0  0  0  0
  -20.8387   16.5328  -29.9138 C   0  0  0  0  0  0  0  0  0  0  0  0
  -20.5420   17.0092  -31.2907 C   0  0  0  0  0  0  0  0  0  0  0  0
  -16.0486   17.7985  -26.4537 C   0  0  0  0  0  0  0  0  0  0  0  0
  -23.2959   16.6315  -30.3899 C   0  0  0  0  0  0  0  0  0  0  0  0
  -15.2847   15.6696  -27.0461 C   0  0  0  0  0  0  0  0  0  0  0  0
  -21.6051   15.8188  -27.1091 C   0  0  0  0  0  0  0  0  0  0  0  0
  -19.3330   17.3353  -31.9644 C   0  0  0  0  0  0  0  0  0  0  0  0
  -22.1250   16.3583  -29.4149 C   0  0  0  0  0  0  0  0  0  0  0  0
  1 18  1  0
  2  3  1  0
  2 20  1  0
  4 10  2  0
  4 11  1  0
  4 13  1  0
  5 19  1  0
  5 21  2  3
  6 12  1  0
  7 16  1  0
  7 18  1  0
  8  9  2  0
  8 11  1  0
  8 16  1  0
  9 13  1  0
  9 18  1  0
 10 19  2  0
 12 16  1  0
 14 15  2  3
 14 21  1  0
 15 20  1  0
 17 21  1  0
M  END
$$$$
