
     RDKit          3D

 25 27  0  0  0  0  0  0  0  0999 V2000
  -16.0993   15.0895  -27.3117 C   0  0  0  0  0  0  0  0  0  0  0  0
  -23.0803   18.8300  -28.7480 C   0  0  0  0  0  0  0  0  0  0  0  0
  -20.6394   16.5627  -30.3234 C   0  0  0  0  0  0  0  0  0  0  0  0
  -23.8179   16.9690  -27.3695 C   0  0  0  0  0  0  0  0  0  0  0  0
  -15.4716   18.6424  -26.8984 O   0  0  0  0  0  0  0  0  0  0  0  0
  -18.7359   16.3577  -32.3164 C   0  0  0  0  0  0  0  0  0  0  0  0
  -23.8914   18.2161  -27.8046 C   0  0  0  0  0  0  0  0  0  0  0  0
  -17.6565   16.6888  -31.3417 C   0  0  0  0  0  0  0  0  0  0  0  0
  -18.2667   16.2110  -30.0442 C   0  0  0  0  0  0  0  0  0  0  0  0
  -19.4462   16.8311  -29.8168 N   0  0  0  0  0  0  0  0  0  0  0  0
  -15.5817   16.2717  -26.8182 C   0  0  0  0  0  0  0  0  0  0  0  0
  -19.8335   14.1671  -32.8133 C   0  0  0  0  0  0  0  0  0  0  0  0
  -22.0198   15.8925  -28.5102 C   0  0  0  0  0  0  0  0  0  0  0  0
  -18.5280   16.6627  -33.5556 O   0  0  0  0  0  0  0  0  0  0  0  0
  -15.6686   13.9376  -26.7591 F   0  0  0  0  0  0  0  0  0  0  0  0
  -17.0000   15.0495  -28.3372 C   0  0  0  0  0  0  0  0  0  0  0  0
  -22.0924   18.1972  -29.3887 C   0  0  0  0  0  0  0  0  0  0  0  0
  -17.3654   16.2357  -28.9122 C   0  0  0  0  0  0  0  0  0  0  0  0
  -16.9456   17.4615  -28.4064 C   0  0  0  0  0  0  0  0  0  0  0  0
  -20.8008   15.5476  -31.2455 C   0  0  0  0  0  0  0  0  0  0  0  0
  -15.9978   17.4913  -27.3745 C   0  0  0  0  0  0  0  0  0  0  0  0
  -17.4689   18.7072  -28.8778 C   0  0  0  0  0  0  0  0  0  0  0  0
  -19.6100   15.3697  -31.9740 N   0  0  0  0  0  0  0  0  0  0  0  0
  -21.6602   16.9054  -29.3590 C   0  0  0  0  0  0  0  0  0  0  0  0
  -23.0174   15.8958  -27.6001 C   0  0  0  0  0  0  0  0  0  0  0  0
  1 11  1  0
  1 15  1  0
  1 16  2  0
  2  7  1  0
  2 17  2  0
  3 10  1  0
  3 20  1  0
  3 24  1  0
  4  7  2  0
  4 25  1  0
  5 21  1  0
  6  8  1  0
  6 14  2  0
  6 23  1  0
  8  9  1  0
  9 10  1  0
  9 18  1  0
 11 21  1  0
 12 23  1  0
 13 24  1  0
 13 25  2  0
 16 18  1  0
 17 24  1  0
 18 19  1  0
 19 21  2  0
 19 22  1  0
 20 23  1  0
M  END
$$$$
