
     RDKit          3D

 24 27  0  0  0  0  0  0  0  0999 V2000
  -11.3525   -6.9953    3.6485 N   0  0  0  0  0  0  0  0  0  0  0  0
  -15.2592   -5.8656    4.6578 C   0  0  0  0  0  0  0  0  0  0  0  0
  -19.3439   -4.2078    4.6117 C   0  0  0  0  0  0  0  0  0  0  0  0
  -18.2562   -6.7447    3.1964 N   0  0  0  0  0  0  0  0  0  0  0  0
  -19.1854   -6.4575    5.9614 C   0  0  0  0  0  0  0  0  0  0  0  0
  -12.6395   -6.7058    3.7148 N   0  0  0  0  0  0  0  0  0  0  0  0
  -21.3982   -5.7465    2.9230 C   0  0  0  0  0  0  0  0  0  0  0  0
  -21.8952   -7.8561    3.9393 C   0  0  0  0  0  0  0  0  0  0  0  0
  -10.7745   -6.7756    4.8270 N   0  0  0  0  0  0  0  0  0  0  0  0
  -20.7749   -6.8132    4.0146 C   0  0  0  0  0  0  0  0  0  0  0  0
  -22.4269   -8.6336    4.9125 C   0  0  0  0  0  0  0  0  0  0  0  0
  -21.8446   -6.8524    1.7549 C   0  0  0  0  0  0  0  0  0  0  0  0
  -22.3913   -7.8865    2.6579 C   0  0  0  0  0  0  0  0  0  0  0  0
  -12.9122   -6.3472    4.9851 C   0  0  0  0  0  0  0  0  0  0  0  0
  -16.3941   -6.3542    4.6987 N   0  0  0  0  0  0  0  0  0  0  0  0
  -19.5067   -7.1392    3.2268 C   0  0  0  0  0  0  0  0  0  0  0  0
  -18.5423   -5.3858    5.1494 C   0  0  0  0  0  0  0  0  0  0  0  0
  -23.3786   -8.7938    2.3223 C   0  0  0  0  0  0  0  0  0  0  0  0
  -20.4499   -6.9624    5.5524 C   0  0  0  0  0  0  0  0  0  0  0  0
  -11.7566   -6.3851    5.6759 N   0  0  0  0  0  0  0  0  0  0  0  0
  -23.4431   -9.5263    4.5712 C   0  0  0  0  0  0  0  0  0  0  0  0
  -23.9113   -9.6046    3.2764 C   0  0  0  0  0  0  0  0  0  0  0  0
  -14.1775   -6.0076    5.3519 N   0  0  0  0  0  0  0  0  0  0  0  0
  -17.5875   -6.0297    4.1643 C   0  0  0  0  0  0  0  0  0  0  0  0
  1  6  1  0
  1  9  1  0
  2 15  2  3
  2 23  1  0
  3 17  1  0
  4 16  1  0
  4 24  2  0
  5 17  1  0
  5 19  1  0
  6 14  1  0
  7 10  1  0
  7 12  1  0
  8 10  1  0
  8 11  2  0
  8 13  1  0
  9 20  1  0
 10 16  1  0
 10 19  1  0
 11 21  1  0
 12 13  1  0
 13 18  1  0
 14 20  1  0
 14 23  2  3
 15 24  1  0
 17 24  1  0
 18 22  2  0
 21 22  1  0
M  END
$$$$
