
     RDKit          3D

  9  9  0  0  0  0  0  0  0  0999 V2000
  -16.1069   -6.0350    4.9094 C   0  0  0  0  0  0  0  0  0  0  0  0
  -12.8026   -6.8113    5.9803 O   0  0  0  0  0  0  0  0  0  0  0  0
  -14.7486   -5.6680    5.1794 C   0  0  0  0  0  0  0  0  0  0  0  0
  -13.4873   -6.4510    4.9998 C   0  0  0  0  0  0  0  0  0  0  0  0
  -18.4440   -6.2534    5.2262 C   0  0  0  0  0  0  0  0  0  0  0  0
  -13.0232   -6.5708    3.8416 O   0  0  0  0  0  0  0  0  0  0  0  0
  -17.1727   -6.0294    5.9354 S   0  0  0  0  0  0  0  0  0  0  0  0
  -18.1398   -6.3794    3.8464 O   0  0  0  0  0  0  0  0  0  0  0  0
  -16.7051   -6.2688    3.7025 C   0  0  0  0  0  0  0  0  0  0  0  0
  1  3  1  0
  1  7  1  0
  1  9  1  0
  2  4  2  0
  3  4  1  0
  4  6  1  0
  5  7  1  0
  5  8  1  0
  8  9  1  0
M  END
$$$$
