
     RDKit          3D

  8  7  0  0  0  0  0  0  0  0999 V2000
  -14.7631   -6.1328    4.0880 C   0  0  0  0  0  0  0  0  0  0  0  0
  -17.0361   -6.0780    3.5185 O   0  0  0  0  0  0  0  0  0  0  0  0
  -12.5330   -6.4503    5.1147 C   0  0  0  0  0  0  0  0  0  0  0  0
  -12.1418   -6.7647    3.9729 O   0  0  0  0  0  0  0  0  0  0  0  0
  -12.0098   -6.9198    6.1556 O   0  0  0  0  0  0  0  0  0  0  0  0
  -16.1991   -6.1598    4.5028 C   0  0  0  0  0  0  0  0  0  0  0  0
  -13.8877   -5.8215    5.3114 C   0  0  0  0  0  0  0  0  0  0  0  0
  -16.4731   -6.1034    5.7129 O   0  0  0  0  0  0  0  0  0  0  0  0
  1  6  1  0
  1  7  1  0
  2  6  2  0
  3  4  2  0
  3  5  1  0
  3  7  1  0
  6  8  1  0
M  END
$$$$
