
     RDKit          3D

 31 34  0  0  0  0  0  0  0  0999 V2000
   25.4278   35.3567  103.3523 C   0  0  0  0  0  0  0  0  0  0  0  0
   27.1380   36.6976  105.3108 O   0  0  0  0  0  0  0  0  0  0  0  0
   29.6936   33.3235  102.9221 C   0  0  0  0  0  0  0  0  0  0  0  0
   28.6146   34.0204  103.4152 C   0  0  0  0  0  0  0  0  0  0  0  0
   31.0789   33.5369  103.0275 C   0  0  0  0  0  0  0  0  0  0  0  0
   29.6290   37.4193  103.9757 O   0  0  0  0  0  0  0  0  0  0  0  0
   27.2880   33.6508  103.4753 N   0  0  0  0  0  0  0  0  0  0  0  0
   22.9931   33.6484  105.5356 C   0  0  0  0  0  0  0  0  0  0  0  0
   31.9162   32.8832  102.3275 O   0  0  0  0  0  0  0  0  0  0  0  0
   23.0770   34.1541  106.9396 C   0  0  0  0  0  0  0  0  0  0  0  0
   25.5961   34.2062  105.2974 C   0  0  0  0  0  0  0  0  0  0  0  0
   26.4813   34.7243  104.1162 C   0  0  0  0  0  0  0  0  0  0  0  0
   24.2827   32.8914  103.5441 C   0  0  0  0  0  0  0  0  0  0  0  0
   31.1611   35.7224  103.9624 N   0  0  0  0  0  0  0  0  0  0  0  0
   25.6309   36.0024   99.8432 C   0  0  0  0  0  0  0  0  0  0  0  0
   29.8765   36.1715  103.9258 C   0  0  0  0  0  0  0  0  0  0  0  0
   24.2638   33.7165  104.8670 C   0  0  0  0  0  0  0  0  0  0  0  0
   25.6582   34.2245  106.6829 C   0  0  0  0  0  0  0  0  0  0  0  0
   26.7057   33.5917  107.3289 O   0  0  0  0  0  0  0  0  0  0  0  0
   25.3059   35.7537  102.0079 C   0  0  0  0  0  0  0  0  0  0  0  0
   24.0496   36.1205  101.5285 O   0  0  0  0  0  0  0  0  0  0  0  0
   26.3108   35.7033  101.0256 N   0  0  0  0  0  0  0  0  0  0  0  0
   31.6485   34.5350  103.8646 N   0  0  0  0  0  0  0  0  0  0  0  0
   27.4442   35.7446  104.5296 C   0  0  0  0  0  0  0  0  0  0  0  0
   24.6144   34.4723  108.8147 O   0  0  0  0  0  0  0  0  0  0  0  0
   23.2887   36.5929   99.3057 F   0  0  0  0  0  0  0  0  0  0  0  0
   24.4047   34.0212  107.5411 C   0  0  0  0  0  0  0  0  0  0  0  0
   32.7633   34.0733  104.4927 N   0  0  0  0  0  0  0  0  0  0  0  0
   24.2582   36.2675  100.1678 C   0  0  0  0  0  0  0  0  0  0  0  0
   22.1590   32.3836  105.2276 C   0  0  0  0  0  0  0  0  0  0  0  0
   28.7309   35.3366  103.9857 C   0  0  0  0  0  0  0  0  0  0  0  0
  1 12  1  0
  1 20  2  3
  2 24  2  0
  3  4  2  0
  3  5  1  0
  4  7  1  0
  4 31  1  0
  5  9  2  0
  5 23  1  0
  6 16  2  0
  7 12  1  0
  8 10  1  0
  8 17  1  0
  8 30  1  0
 10 27  1  0
 11 12  1  0
 11 17  1  0
 11 18  1  0
 12 24  1  0
 13 17  1  0
 14 16  1  0
 14 23  1  0
 15 22  1  0
 15 29  1  0
 16 31  1  0
 18 19  1  0
 18 27  1  0
 20 21  1  0
 20 22  1  0
 21 29  1  0
 23 28  1  0
 24 31  1  0
 25 27  1  0
 26 29  1  0
M  END
$$$$
