
     RDKit          3D

 23 23  0  0  0  0  0  0  0  0999 V2000
   23.7930   35.9228   99.9105 F   0  0  0  0  0  0  0  0  0  0  0  0
   24.6308   36.2846  100.8798 C   0  0  0  0  0  0  0  0  0  0  0  0
   31.0609   34.5760  103.6069 C   0  0  0  0  0  0  0  0  0  0  0  0
   23.9360   33.9585  107.1565 O   0  0  0  0  0  0  0  0  0  0  0  0
   29.1837   36.1162  103.6082 C   0  0  0  0  0  0  0  0  0  0  0  0
   23.1103   33.4130  105.8394 C   0  0  0  0  0  0  0  0  0  0  0  0
   30.5222   32.5353  102.5182 O   0  0  0  0  0  0  0  0  0  0  0  0
   31.3236   33.5369  102.6043 C   0  0  0  0  0  0  0  0  0  0  0  0
   25.0598   37.5348  100.9533 F   0  0  0  0  0  0  0  0  0  0  0  0
   27.0119   35.1334  103.7258 C   0  0  0  0  0  0  0  0  0  0  0  0
   29.9517   37.1534  103.6287 F   0  0  0  0  0  0  0  0  0  0  0  0
   25.1832   35.3207  101.8669 C   0  0  0  0  0  0  0  0  0  0  0  0
   25.1762   35.5215  105.8999 O   0  0  0  0  0  0  0  0  0  0  0  0
   24.7342   33.9440  104.0259 C   0  0  0  0  0  0  0  0  0  0  0  0
   32.3872   34.1082  105.4196 C   0  0  0  0  0  0  0  0  0  0  0  0
   27.8358   36.2434  103.3594 C   0  0  0  0  0  0  0  0  0  0  0  0
   25.5733   35.1252  103.2979 C   0  0  0  0  0  0  0  0  0  0  0  0
   29.6906   34.8327  103.9451 C   0  0  0  0  0  0  0  0  0  0  0  0
   27.5572   34.1032  104.4439 C   0  0  0  0  0  0  0  0  0  0  0  0
   31.9343   35.0437  104.5350 N   0  0  0  0  0  0  0  0  0  0  0  0
   24.3753   34.3127  105.6402 C   0  0  0  0  0  0  0  0  0  0  0  0
   28.8759   33.9667  104.6085 C   0  0  0  0  0  0  0  0  0  0  0  0
   32.3604   33.7635  101.8584 O   0  0  0  0  0  0  0  0  0  0  0  0
  1  2  1  0
  2  9  1  0
  2 12  1  0
  3  8  1  0
  3 18  1  0
  3 20  1  0
  4 21  1  0
  5 11  1  0
  5 16  2  0
  5 18  1  0
  6 21  1  0
  7  8  2  0
  8 23  1  0
 10 16  1  0
 10 17  1  0
 10 19  1  0
 12 17  1  0
 13 21  1  0
 14 17  1  0
 14 21  1  0
 15 20  1  0
 18 22  1  0
 19 22  2  0
M  END
$$$$
