
     RDKit          3D

 31 32  0  0  0  0  0  0  0  0999 V2000
   31.3387   33.7169  102.9721 C   0  0  0  0  0  0  0  0  0  0  0  0
   26.9995   34.3675  105.0618 C   0  0  0  0  0  0  0  0  0  0  0  0
   24.5286   33.8906  103.8311 C   0  0  0  0  0  0  0  0  0  0  0  0
   23.4126   36.2797   99.0214 N   0  0  0  0  0  0  0  0  0  0  0  0
   25.1626   37.0356  100.5188 C   0  0  0  0  0  0  0  0  0  0  0  0
   23.3565   32.7376  105.3914 N   0  0  0  0  0  0  0  0  0  0  0  0
   22.6268   33.6468  107.5962 C   0  0  0  0  0  0  0  0  0  0  0  0
   26.1203   36.3403  101.4201 C   0  0  0  0  0  0  0  0  0  0  0  0
   27.7564   35.4365  103.4417 N   0  0  0  0  0  0  0  0  0  0  0  0
   24.0980   34.0611  107.6162 C   0  0  0  0  0  0  0  0  0  0  0  0
   24.5290   33.5471  105.2057 C   0  0  0  0  0  0  0  0  0  0  0  0
   32.2226   33.8344  102.0431 O   0  0  0  0  0  0  0  0  0  0  0  0
   25.4551   34.6726  103.0700 C   0  0  0  0  0  0  0  0  0  0  0  0
   30.1247   32.8870  102.7184 C   0  0  0  0  0  0  0  0  0  0  0  0
   21.0695   32.7145  106.2319 N   0  0  0  0  0  0  0  0  0  0  0  0
   30.2332   36.8786  103.6215 O   0  0  0  0  0  0  0  0  0  0  0  0
   33.2168   33.8014  104.9092 O   0  0  0  0  0  0  0  0  0  0  0  0
   26.6457   34.8312  103.8408 C   0  0  0  0  0  0  0  0  0  0  0  0
   25.1888   35.2794  101.8090 C   0  0  0  0  0  0  0  0  0  0  0  0
   26.3694   33.5109  107.3610 O   0  0  0  0  0  0  0  0  0  0  0  0
   28.2730   34.6052  105.4536 C   0  0  0  0  0  0  0  0  0  0  0  0
   30.1183   35.7193  104.0606 C   0  0  0  0  0  0  0  0  0  0  0  0
   25.1103   33.7819  106.6126 C   0  0  0  0  0  0  0  0  0  0  0  0
   31.1941   34.7324  104.0318 C   0  0  0  0  0  0  0  0  0  0  0  0
   31.8583   34.2459  105.3039 C   0  0  0  0  0  0  0  0  0  0  0  0
   24.5234   34.6958  108.7843 O   0  0  0  0  0  0  0  0  0  0  0  0
   20.8204   32.7848  107.6750 C   0  0  0  0  0  0  0  0  0  0  0  0
   22.2711   33.4048  106.0517 C   0  0  0  0  0  0  0  0  0  0  0  0
   24.1320   35.8998  100.2169 C   0  0  0  0  0  0  0  0  0  0  0  0
   28.7436   35.2634  104.3310 C   0  0  0  0  0  0  0  0  0  0  0  0
   20.8255   31.5361  105.4305 C   0  0  0  0  0  0  0  0  0  0  0  0
  1 12  1  0
  1 14  1  0
  1 24  1  0
  2 18  2  0
  2 21  1  0
  3 11  2  3
  3 13  1  0
  4 29  1  0
  5  8  1  0
  5 29  1  0
  6 11  1  0
  6 28  1  0
  7 10  1  0
  7 28  1  0
  8 19  1  0
  9 18  1  0
  9 30  1  0
 10 23  1  0
 10 26  1  0
 11 23  1  0
 13 18  1  0
 13 19  2  3
 15 27  1  0
 15 28  1  0
 15 31  1  0
 16 22  2  0
 17 25  1  0
 20 23  1  0
 21 30  1  0
 22 24  1  0
 22 30  1  0
 24 25  1  0
M  END
$$$$
