
     RDKit          3D

 27 29  0  0  0  0  0  0  0  0999 V2000
   26.8640   36.3629  102.1847 C   0  0  0  0  0  0  0  0  0  0  0  0
   30.8653   34.5158  104.1159 C   0  0  0  0  0  0  0  0  0  0  0  0
   26.0508   34.0546  106.6239 C   0  0  0  0  0  0  0  0  0  0  0  0
   30.6214   35.7631  103.5097 C   0  0  0  0  0  0  0  0  0  0  0  0
   23.5424   34.5530  106.6092 C   0  0  0  0  0  0  0  0  0  0  0  0
   30.6669   33.9326  105.3740 C   0  0  0  0  0  0  0  0  0  0  0  0
   23.6192   33.6781  107.8126 C   0  0  0  0  0  0  0  0  0  0  0  0
   30.6408   32.4555  102.9175 C   0  0  0  0  0  0  0  0  0  0  0  0
   26.6123   37.0426  101.0945 C   0  0  0  0  0  0  0  0  0  0  0  0
   25.4097   36.8466  100.4052 C   0  0  0  0  0  0  0  0  0  0  0  0
   26.1363   34.8354  103.9560 C   0  0  0  0  0  0  0  0  0  0  0  0
   32.0959   34.0327  101.9044 C   0  0  0  0  0  0  0  0  0  0  0  0
   24.7813   34.1438  108.6320 C   0  0  0  0  0  0  0  0  0  0  0  0
   24.5166   35.8790  100.8241 C   0  0  0  0  0  0  0  0  0  0  0  0
   31.6377   33.5373  103.2087 C   0  0  0  0  0  0  0  0  0  0  0  0
   25.9337   35.4427  102.6662 C   0  0  0  0  0  0  0  0  0  0  0  0
   24.9056   34.6877  106.0479 C   0  0  0  0  0  0  0  0  0  0  0  0
   29.4631   33.9347  104.8908 C   0  0  0  0  0  0  0  0  0  0  0  0
   27.3470   34.9195  104.6036 N   0  0  0  0  0  0  0  0  0  0  0  0
   28.5799   33.0025  105.5732 C   0  0  0  0  0  0  0  0  0  0  0  0
   24.7678   35.1578  101.9838 C   0  0  0  0  0  0  0  0  0  0  0  0
   28.6651   35.1802  104.5884 C   0  0  0  0  0  0  0  0  0  0  0  0
   32.7554   33.2177  103.9318 O   0  0  0  0  0  0  0  0  0  0  0  0
   23.4697   35.6972  100.0450 O   0  0  0  0  0  0  0  0  0  0  0  0
   29.3840   36.2129  104.0402 C   0  0  0  0  0  0  0  0  0  0  0  0
   24.8075   34.7504  104.6049 C   0  0  0  0  0  0  0  0  0  0  0  0
   26.0788   34.0041  108.0327 C   0  0  0  0  0  0  0  0  0  0  0  0
  1  9  2  0
  1 16  1  0
  2  4  1  0
  2  6  1  0
  2 15  1  0
  3 17  1  0
  3 27  1  0
  4 25  1  0
  5  7  1  0
  5 17  1  0
  6 18  1  0
  7 13  1  0
  8 15  1  0
  9 10  1  0
 10 14  1  0
 11 16  1  0
 11 19  1  0
 11 26  1  0
 12 15  1  0
 13 27  1  0
 14 21  2  0
 14 24  1  0
 15 23  1  0
 16 21  1  0
 17 26  1  0
 18 20  1  0
 18 22  1  0
 19 22  1  0
 22 25  1  0
M  END
$$$$
