
     RDKit          3D

 26 28  0  0  0  0  0  0  0  0999 V2000
   24.0673   33.9550  106.7878 C   0  0  0  0  0  0  0  0  0  0  0  0
   27.8298   35.0322  104.2866 C   0  0  0  0  0  0  0  0  0  0  0  0
   23.0887   36.7813   99.4662 O   0  0  0  0  0  0  0  0  0  0  0  0
   25.6451   34.5129  105.1365 C   0  0  0  0  0  0  0  0  0  0  0  0
   31.5941   34.5282  104.0875 C   0  0  0  0  0  0  0  0  0  0  0  0
   25.3895   35.4487  101.5922 C   0  0  0  0  0  0  0  0  0  0  0  0
   26.9946   34.1495  105.0169 O   0  0  0  0  0  0  0  0  0  0  0  0
   26.2324   33.3682  107.6697 O   0  0  0  0  0  0  0  0  0  0  0  0
   26.1931   36.4532  100.9576 C   0  0  0  0  0  0  0  0  0  0  0  0
   25.8222   35.1075  102.8858 C   0  0  0  0  0  0  0  0  0  0  0  0
   24.6502   35.2727  106.0296 C   0  0  0  0  0  0  0  0  0  0  0  0
   30.2117   36.5654  103.8111 O   0  0  0  0  0  0  0  0  0  0  0  0
   25.1375   33.9703  107.8444 C   0  0  0  0  0  0  0  0  0  0  0  0
   29.1291   34.5084  103.9610 N   0  0  0  0  0  0  0  0  0  0  0  0
   25.3193   37.0743  100.0828 N   0  0  0  0  0  0  0  0  0  0  0  0
   30.3081   35.2589  104.2347 C   0  0  0  0  0  0  0  0  0  0  0  0
   32.4918   33.6247  102.0604 O   0  0  0  0  0  0  0  0  0  0  0  0
   27.1327   35.5853  103.1780 C   0  0  0  0  0  0  0  0  0  0  0  0
   24.9111   34.8297  108.7034 O   0  0  0  0  0  0  0  0  0  0  0  0
   24.1063   35.3378  101.0775 C   0  0  0  0  0  0  0  0  0  0  0  0
   32.5360   34.6422  105.0691 O   0  0  0  0  0  0  0  0  0  0  0  0
   31.6317   33.3574  103.1953 C   0  0  0  0  0  0  0  0  0  0  0  0
   30.3704   32.7898  102.6208 C   0  0  0  0  0  0  0  0  0  0  0  0
   29.1186   33.3528  103.1019 C   0  0  0  0  0  0  0  0  0  0  0  0
   24.9192   34.4307  103.8161 C   0  0  0  0  0  0  0  0  0  0  0  0
   24.1912   36.3209  100.0250 N   0  0  0  0  0  0  0  0  0  0  0  0
  1 11  1  0
  1 13  1  0
  2  7  1  0
  2 14  1  0
  2 18  1  0
  3 26  1  0
  4  7  1  0
  4 11  1  0
  4 25  1  0
  5 16  1  0
  5 21  1  0
  5 22  1  0
  6  9  1  0
  6 10  2  3
  6 20  1  0
  8 13  2  0
  9 15  1  0
 10 18  1  0
 10 25  1  0
 12 16  2  0
 13 19  1  0
 14 16  1  0
 14 24  1  0
 15 26  1  0
 17 22  1  0
 20 26  1  0
 22 23  1  0
 23 24  2  0
M  END
$$$$
