
     RDKit          3D

 25 27  0  0  0  0  0  0  0  0999 V2000
   26.8939   34.8025  107.5433 O   0  0  0  0  0  0  0  0  0  0  0  0
   30.7493   36.6494  103.7087 O   0  0  0  0  0  0  0  0  0  0  0  0
   24.4781   33.5150  106.4731 C   0  0  0  0  0  0  0  0  0  0  0  0
   32.5726   34.3446  105.0474 O   0  0  0  0  0  0  0  0  0  0  0  0
   25.1894   34.1284  104.2649 C   0  0  0  0  0  0  0  0  0  0  0  0
   30.1262   34.6221  104.7437 C   0  0  0  0  0  0  0  0  0  0  0  0
   29.7931   35.7665  103.8021 C   0  0  0  0  0  0  0  0  0  0  0  0
   31.4565   33.3878  103.0600 C   0  0  0  0  0  0  0  0  0  0  0  0
   31.4406   33.9551  104.4057 C   0  0  0  0  0  0  0  0  0  0  0  0
   25.9866   35.0714  103.4092 C   0  0  0  0  0  0  0  0  0  0  0  0
   23.3501   32.5912  104.5291 C   0  0  0  0  0  0  0  0  0  0  0  0
   25.9281   37.2535  101.2000 O   0  0  0  0  0  0  0  0  0  0  0  0
   27.7901   35.1475  105.2596 C   0  0  0  0  0  0  0  0  0  0  0  0
   24.2132   33.2998  103.7250 C   0  0  0  0  0  0  0  0  0  0  0  0
   24.1716   36.2399  100.2474 N   0  0  0  0  0  0  0  0  0  0  0  0
   25.1791   36.2893  101.1590 C   0  0  0  0  0  0  0  0  0  0  0  0
   28.7797   33.9487  105.0894 C   0  0  0  0  0  0  0  0  0  0  0  0
   27.3129   35.5167  103.8401 C   0  0  0  0  0  0  0  0  0  0  0  0
   25.4119   34.1520  105.6575 C   0  0  0  0  0  0  0  0  0  0  0  0
   26.6910   34.8640  106.2015 C   0  0  0  0  0  0  0  0  0  0  0  0
   28.5386   35.9992  103.1147 C   0  0  0  0  0  0  0  0  0  0  0  0
   32.2500   33.8853  102.1141 O   0  0  0  0  0  0  0  0  0  0  0  0
   30.3977   32.6318  102.7089 O   0  0  0  0  0  0  0  0  0  0  0  0
   23.4425   32.7255  105.9209 C   0  0  0  0  0  0  0  0  0  0  0  0
   25.3495   35.1783  102.1068 C   0  0  0  0  0  0  0  0  0  0  0  0
  1 20  1  0
  2  7  1  0
  3 19  2  0
  3 24  1  0
  4  9  1  0
  5 10  1  0
  5 14  1  0
  5 19  1  0
  6  7  1  0
  6  9  1  0
  6 17  1  0
  7 21  1  0
  8  9  1  0
  8 22  2  0
  8 23  1  0
 10 18  1  0
 10 25  1  0
 11 14  2  0
 11 24  1  0
 12 16  2  0
 13 17  1  0
 13 18  1  0
 13 20  1  0
 15 16  1  0
 16 25  1  0
 18 21  1  0
 19 20  1  0
M  END
$$$$
