
     RDKit          3D

 21 20  0  0  0  0  0  0  0  0999 V2000
   31.2164   34.3017  104.7926 C   0  0  0  0  0  0  0  0  0  0  0  0
   32.3939   34.6643  104.8459 O   0  0  0  0  0  0  0  0  0  0  0  0
   26.7351   35.4840  103.9826 C   0  0  0  0  0  0  0  0  0  0  0  0
   30.3721   33.5301  102.4658 C   0  0  0  0  0  0  0  0  0  0  0  0
   26.0062   35.8677  102.8747 N   0  0  0  0  0  0  0  0  0  0  0  0
   24.3577   32.9987  105.0384 C   0  0  0  0  0  0  0  0  0  0  0  0
   24.5097   32.0649  103.7796 C   0  0  0  0  0  0  0  0  0  0  0  0
   26.7234   35.6079  106.3672 N   0  0  0  0  0  0  0  0  0  0  0  0
   26.5672   36.0759  101.6846 C   0  0  0  0  0  0  0  0  0  0  0  0
   26.0514   34.9943  105.1709 C   0  0  0  0  0  0  0  0  0  0  0  0
   25.4672   34.3351  108.0225 N   0  0  0  0  0  0  0  0  0  0  0  0
   30.5422   34.0794  105.8630 O   0  0  0  0  0  0  0  0  0  0  0  0
   29.9165   36.8088  103.7224 O   0  0  0  0  0  0  0  0  0  0  0  0
   24.3301   36.1146  100.7191 C   0  0  0  0  0  0  0  0  0  0  0  0
   30.4555   34.5312  103.5214 C   0  0  0  0  0  0  0  0  0  0  0  0
   28.1115   35.2776  103.8443 C   0  0  0  0  0  0  0  0  0  0  0  0
   23.6581   36.2606   99.4712 N   0  0  0  0  0  0  0  0  0  0  0  0
   29.4337   35.5835  103.6408 C   0  0  0  0  0  0  0  0  0  0  0  0
   25.7794   36.4876  100.5846 C   0  0  0  0  0  0  0  0  0  0  0  0
   26.4090   34.9918  107.4892 C   0  0  0  0  0  0  0  0  0  0  0  0
   25.3528   33.8731  105.2967 O   0  0  0  0  0  0  0  0  0  0  0  0
  1  2  2  0
  1 12  1  0
  1 15  1  0
  3  5  1  0
  3 10  1  0
  3 16  2  0
  4 15  1  0
  5  9  2  3
  6  7  1  0
  6 21  1  0
  8 10  1  0
  8 20  1  0
  9 19  1  0
 10 21  1  0
 11 20  2  0
 13 18  1  0
 14 17  1  0
 14 19  1  0
 15 18  1  0
 16 18  2  0
M  END
$$$$
