
     RDKit          3D

 33 35  0  0  0  0  0  0  0  0999 V2000
   24.8800   33.5890  103.2641 O   0  0  0  0  0  0  0  0  0  0  0  0
   27.2271   33.6109  103.7360 N   0  0  0  0  0  0  0  0  0  0  0  0
   24.9200   35.9046  102.1148 O   0  0  0  0  0  0  0  0  0  0  0  0
   22.4044   31.5459  104.5182 C   0  0  0  0  0  0  0  0  0  0  0  0
   26.2529   36.3683  100.2702 C   0  0  0  0  0  0  0  0  0  0  0  0
   24.9022   36.4921  100.8577 C   0  0  0  0  0  0  0  0  0  0  0  0
   26.1221   35.4395  102.6337 C   0  0  0  0  0  0  0  0  0  0  0  0
   31.3672   33.0683  103.2183 C   0  0  0  0  0  0  0  0  0  0  0  0
   28.4303   35.5531  103.1817 C   0  0  0  0  0  0  0  0  0  0  0  0
   29.7443   33.4151  103.6015 C   0  0  0  0  0  0  0  0  0  0  0  0
   23.8138   35.7687  100.0174 C   0  0  0  0  0  0  0  0  0  0  0  0
   32.2192   33.6447  102.1109 C   0  0  0  0  0  0  0  0  0  0  0  0
   29.6708   36.2798  103.4231 C   0  0  0  0  0  0  0  0  0  0  0  0
   27.2776   36.1100  102.7035 N   0  0  0  0  0  0  0  0  0  0  0  0
   30.8564   34.2240  103.9941 C   0  0  0  0  0  0  0  0  0  0  0  0
   21.9352   32.2924  106.7421 C   0  0  0  0  0  0  0  0  0  0  0  0
   29.6014   37.4671  103.7610 O   0  0  0  0  0  0  0  0  0  0  0  0
   31.9251   34.3364  105.1292 C   0  0  0  0  0  0  0  0  0  0  0  0
   24.8934   34.0466  107.9150 C   0  0  0  0  0  0  0  0  0  0  0  0
   28.4426   34.1925  103.5054 C   0  0  0  0  0  0  0  0  0  0  0  0
   24.2889   33.4314  106.7126 C   0  0  0  0  0  0  0  0  0  0  0  0
   24.1141   34.4167  108.8857 O   0  0  0  0  0  0  0  0  0  0  0  0
   30.8261   35.5584  103.3439 N   0  0  0  0  0  0  0  0  0  0  0  0
   25.1418   33.5115  105.5921 N   0  0  0  0  0  0  0  0  0  0  0  0
   23.4823   32.1411  104.3607 C   0  0  0  0  0  0  0  0  0  0  0  0
   23.5946   36.4891   98.8278 O   0  0  0  0  0  0  0  0  0  0  0  0
   26.1497   34.1738  107.8735 O   0  0  0  0  0  0  0  0  0  0  0  0
   24.5103   33.0261  104.4470 C   0  0  0  0  0  0  0  0  0  0  0  0
   33.2419   33.8061  104.7997 O   0  0  0  0  0  0  0  0  0  0  0  0
   23.0360   32.9602  106.8527 C   0  0  0  0  0  0  0  0  0  0  0  0
   26.1892   35.5241   99.0508 C   0  0  0  0  0  0  0  0  0  0  0  0
   21.5079   31.5412  105.6158 C   0  0  0  0  0  0  0  0  0  0  0  0
   26.1158   34.1805  103.2476 C   0  0  0  0  0  0  0  0  0  0  0  0
  1 28  1  0
  1 33  1  0
  2 20  1  0
  2 33  2  0
  3  6  1  0
  3  7  1  0
  4 25  2  0
  4 32  1  0
  5  6  1  0
  5 31  1  0
  6 11  1  0
  7 14  2  0
  7 33  1  0
  8 12  1  0
  8 15  1  0
  9 13  1  0
  9 14  1  0
  9 20  1  0
 10 15  1  0
 10 20  1  0
 11 26  1  0
 13 17  2  0
 13 23  1  0
 15 18  1  0
 15 23  1  0
 16 30  2  0
 16 32  1  0
 18 29  1  0
 19 21  1  0
 19 22  2  0
 19 27  1  0
 21 24  1  0
 21 30  2  0
 24 28  1  0
 25 28  2  0
M  END
$$$$
