
     RDKit          3D

 15 16  0  0  0  0  0  0  0  0999 V2000
  -16.7433   15.1970  -27.3322 C   0  0  0  0  0  0  0  0  0  0  0  0
  -22.6166   16.1595  -27.7102 O   0  0  0  0  0  0  0  0  0  0  0  0
  -18.0133   15.2605  -27.6368 C   0  0  0  0  0  0  0  0  0  0  0  0
  -21.4099   16.3043  -26.9573 C   0  0  0  0  0  0  0  0  0  0  0  0
  -23.2160   16.0061  -30.1885 C   0  0  0  0  0  0  0  0  0  0  0  0
  -16.3530   16.8268  -25.5680 C   0  0  0  0  0  0  0  0  0  0  0  0
  -18.7398   16.8912  -26.0674 C   0  0  0  0  0  0  0  0  0  0  0  0
  -22.2352   15.9951  -29.0683 C   0  0  0  0  0  0  0  0  0  0  0  0
  -20.3150   16.0343  -27.7570 C   0  0  0  0  0  0  0  0  0  0  0  0
  -17.6525   17.2185  -25.4549 C   0  0  0  0  0  0  0  0  0  0  0  0
  -19.0425   16.0549  -27.1400 C   0  0  0  0  0  0  0  0  0  0  0  0
  -24.1551   14.7928  -30.0778 C   0  0  0  0  0  0  0  0  0  0  0  0
  -15.9263   15.8493  -26.4790 C   0  0  0  0  0  0  0  0  0  0  0  0
  -21.3004   16.7173  -25.7795 O   0  0  0  0  0  0  0  0  0  0  0  0
  -20.7994   15.9479  -29.0367 C   0  0  0  0  0  0  0  0  0  0  0  0
  1  3  2  0
  1 13  1  0
  2  4  1  0
  2  8  1  0
  3 11  1  0
  4  9  1  0
  4 14  2  0
  5  8  1  0
  5 12  1  0
  6 10  1  0
  6 13  2  0
  7 10  2  0
  7 11  1  0
  8 15  1  0
  9 11  1  0
  9 15  1  0
M  END
$$$$
