
     RDKit          3D

 24 26  0  0  0  0  0  0  0  0999 V2000
  -16.4958   13.9809  -27.6134 C   0  0  0  0  0  0  0  0  0  0  0  0
  -24.8417   15.5311  -28.2171 C   0  0  0  0  0  0  0  0  0  0  0  0
  -18.9981   15.9007  -31.5976 C   0  0  0  0  0  0  0  0  0  0  0  0
  -24.7326   16.9789  -27.7979 C   0  0  0  0  0  0  0  0  0  0  0  0
  -20.1936   15.7890  -28.1519 C   0  0  0  0  0  0  0  0  0  0  0  0
  -19.2184   15.8054  -29.1303 C   0  0  0  0  0  0  0  0  0  0  0  0
  -22.7056   15.7742  -29.6351 C   0  0  0  0  0  0  0  0  0  0  0  0
  -15.6794   16.5049  -26.7808 C   0  0  0  0  0  0  0  0  0  0  0  0
  -19.3378   16.4315  -32.7954 C   0  0  0  0  0  0  0  0  0  0  0  0
  -18.1662   14.9480  -29.0545 C   0  0  0  0  0  0  0  0  0  0  0  0
  -21.5493   15.9870  -28.6326 N   0  0  0  0  0  0  0  0  0  0  0  0
  -17.1764   15.1476  -28.0499 C   0  0  0  0  0  0  0  0  0  0  0  0
  -16.7999   16.4098  -27.5801 C   0  0  0  0  0  0  0  0  0  0  0  0
  -20.2346   17.6372  -30.5420 C   0  0  0  0  0  0  0  0  0  0  0  0
  -20.5409   18.3161  -29.4793 F   0  0  0  0  0  0  0  0  0  0  0  0
  -20.5182   18.1497  -31.7404 N   0  0  0  0  0  0  0  0  0  0  0  0
  -15.4122   14.0777  -26.8288 C   0  0  0  0  0  0  0  0  0  0  0  0
  -19.4948   16.4041  -30.4546 C   0  0  0  0  0  0  0  0  0  0  0  0
  -22.3711   16.2542  -27.3470 C   0  0  0  0  0  0  0  0  0  0  0  0
  -18.8719   15.7528  -34.0113 C   0  0  0  0  0  0  0  0  0  0  0  0
  -23.2802   17.4985  -27.6291 C   0  0  0  0  0  0  0  0  0  0  0  0
  -15.0193   15.3293  -26.4642 C   0  0  0  0  0  0  0  0  0  0  0  0
  -20.0759   17.5745  -32.8476 C   0  0  0  0  0  0  0  0  0  0  0  0
  -23.6938   14.7633  -28.9688 C   0  0  0  0  0  0  0  0  0  0  0  0
  1 12  1  0
  1 17  2  0
  2  4  1  0
  2 24  1  0
  3  9  2  0
  3 18  1  0
  4 21  1  0
  5  6  1  0
  5 11  1  0
  6 10  1  0
  6 18  1  0
  7 11  1  0
  7 24  1  0
  8 13  1  0
  8 22  2  0
  9 20  1  0
  9 23  1  0
 10 12  1  0
 11 19  1  0
 12 13  2  0
 14 15  1  0
 14 16  1  0
 14 18  2  0
 16 23  2  0
 17 22  1  0
 19 21  1  0
M  END
$$$$
