
     RDKit          3D

 24 28  0  0  0  0  0  0  0  0999 V2000
  -19.5571   17.0347  -25.6909 N   0  0  0  0  0  0  0  0  0  0  0  0
  -21.6687   20.7753  -26.4695 C   0  0  0  0  0  0  0  0  0  0  0  0
  -17.2135   14.4983  -29.2513 C   0  0  0  0  0  0  0  0  0  0  0  0
  -16.0933   15.3083  -27.2190 C   0  0  0  0  0  0  0  0  0  0  0  0
  -16.1296   16.0714  -26.0822 C   0  0  0  0  0  0  0  0  0  0  0  0
  -21.6847   17.2589  -28.8665 C   0  0  0  0  0  0  0  0  0  0  0  0
  -20.8678   17.2835  -25.8777 N   0  0  0  0  0  0  0  0  0  0  0  0
  -18.3295   16.0260  -27.7027 C   0  0  0  0  0  0  0  0  0  0  0  0
  -21.5665   18.5081  -28.0190 C   0  0  0  0  0  0  0  0  0  0  0  0
  -18.8687   14.3010  -32.5991 C   0  0  0  0  0  0  0  0  0  0  0  0
  -18.1690   14.7228  -30.2911 C   0  0  0  0  0  0  0  0  0  0  0  0
  -17.2142   15.3032  -28.0472 C   0  0  0  0  0  0  0  0  0  0  0  0
  -19.3265   16.1424  -28.7485 N   0  0  0  0  0  0  0  0  0  0  0  0
  -21.7337   20.8842  -27.8341 C   0  0  0  0  0  0  0  0  0  0  0  0
  -21.4749   19.5806  -25.8556 N   0  0  0  0  0  0  0  0  0  0  0  0
  -19.0977   15.7531  -30.0729 C   0  0  0  0  0  0  0  0  0  0  0  0
  -21.6747   19.7314  -28.6064 C   0  0  0  0  0  0  0  0  0  0  0  0
  -19.9075   16.1138  -31.2231 C   0  0  0  0  0  0  0  0  0  0  0  0
  -19.9319   15.1705  -32.2711 N   0  0  0  0  0  0  0  0  0  0  0  0
  -20.7350   16.1077  -28.4318 C   0  0  0  0  0  0  0  0  0  0  0  0
  -18.2563   13.7633  -31.3553 C   0  0  0  0  0  0  0  0  0  0  0  0
  -17.2507   16.7290  -25.6534 C   0  0  0  0  0  0  0  0  0  0  0  0
  -18.4028   16.6162  -26.3604 C   0  0  0  0  0  0  0  0  0  0  0  0
  -21.3374   18.4692  -26.5794 C   0  0  0  0  0  0  0  0  0  0  0  0
  1  7  1  0
  1 23  2  3
  2 14  2  0
  2 15  1  0
  3 11  2  0
  3 12  1  0
  4  5  1  0
  4 12  2  0
  5 22  2  0
  6  9  1  0
  6 20  1  0
  7 24  1  0
  8 12  1  0
  8 13  1  0
  8 23  1  0
  9 17  2  0
  9 24  1  0
 10 19  1  0
 10 21  1  0
 11 16  1  0
 11 21  1  0
 13 16  1  0
 13 20  1  0
 14 17  1  0
 15 24  2  0
 16 18  1  0
 18 19  1  0
 22 23  1  0
M  END
$$$$
