
     RDKit          3D

 32 34  0  0  0  0  0  0  0  0999 V2000
  -17.0655   17.7343  -25.5034 O   0  0  0  0  0  0  0  0  0  0  0  0
  -16.3181   15.5651  -32.6294 C   0  0  0  0  0  0  0  0  0  0  0  0
  -18.8554   18.9237  -28.2143 N   0  0  0  0  0  0  0  0  0  0  0  0
  -23.3243   15.0886  -28.5385 C   0  0  0  0  0  0  0  0  0  0  0  0
  -17.3720   14.8340  -33.4192 C   0  0  0  0  0  0  0  0  0  0  0  0
  -16.4549   15.4638  -26.6917 C   0  0  0  0  0  0  0  0  0  0  0  0
  -19.6982   17.8814  -28.4651 C   0  0  0  0  0  0  0  0  0  0  0  0
  -18.1357   15.9176  -28.4635 C   0  0  0  0  0  0  0  0  0  0  0  0
  -13.9087   16.0962  -27.6181 C   0  0  0  0  0  0  0  0  0  0  0  0
  -18.6204   14.2376  -32.7577 C   0  0  0  0  0  0  0  0  0  0  0  0
  -16.3497   14.0523  -27.2246 C   0  0  0  0  0  0  0  0  0  0  0  0
  -20.5558   16.0664  -29.5937 C   0  0  0  0  0  0  0  0  0  0  0  0
  -17.8758   14.6817  -29.2689 C   0  0  0  0  0  0  0  0  0  0  0  0
  -17.3566   16.3357  -27.3833 N   0  0  0  0  0  0  0  0  0  0  0  0
  -14.3690   17.5576  -29.6586 C   0  0  0  0  0  0  0  0  0  0  0  0
  -24.6709   15.8014  -27.8135 C   0  0  0  0  0  0  0  0  0  0  0  0
  -19.3452   16.6025  -28.9087 C   0  0  0  0  0  0  0  0  0  0  0  0
  -14.3539   16.1959  -29.1082 C   0  0  0  0  0  0  0  0  0  0  0  0
  -18.3723   14.8339  -30.6531 C   0  0  0  0  0  0  0  0  0  0  0  0
  -14.0924   14.7233  -27.0382 C   0  0  0  0  0  0  0  0  0  0  0  0
  -23.6691   16.6803  -30.5069 C   0  0  0  0  0  0  0  0  0  0  0  0
  -22.9816   16.5390  -29.1712 C   0  0  0  0  0  0  0  0  0  0  0  0
  -14.8717   17.7961  -31.0366 C   0  0  0  0  0  0  0  0  0  0  0  0
  -18.0145   15.9360  -34.2549 C   0  0  0  0  0  0  0  0  0  0  0  0
  -17.7931   18.7995  -27.4022 C   0  0  0  0  0  0  0  0  0  0  0  0
  -13.6428   18.5685  -28.8848 C   0  0  0  0  0  0  0  0  0  0  0  0
  -21.6353   16.8988  -29.0940 N   0  0  0  0  0  0  0  0  0  0  0  0
  -17.4059   17.6364  -26.7465 C   0  0  0  0  0  0  0  0  0  0  0  0
  -19.0677   15.2765  -31.8195 O   0  0  0  0  0  0  0  0  0  0  0  0
  -15.0466   14.0115  -27.9381 O   0  0  0  0  0  0  0  0  0  0  0  0
  -23.9577   17.2504  -28.0887 C   0  0  0  0  0  0  0  0  0  0  0  0
  -21.1318   18.0242  -28.3217 C   0  0  0  0  0  0  0  0  0  0  0  0
  1 28  2  0
  2  5  1  0
  3  7  1  0
  3 25  2  0
  4 16  1  0
  4 22  1  0
  5 10  1  0
  5 24  1  0
  6 11  1  0
  6 14  1  0
  7 17  1  0
  7 32  1  0
  8 13  1  0
  8 14  1  0
  8 17  1  0
  9 18  1  0
  9 20  1  0
 10 29  1  0
 11 30  1  0
 12 17  1  0
 12 27  1  0
 13 19  1  0
 14 28  1  0
 15 18  1  0
 15 23  1  0
 15 26  1  0
 16 31  1  0
 19 29  1  0
 20 30  1  0
 21 22  1  0
 22 27  1  0
 22 31  1  0
 25 28  1  0
 27 32  1  0
M  END
$$$$
