
     RDKit          3D

 16 17  0  0  0  0  0  0  0  0999 V2000
  -19.7126   15.7171  -28.2387 C   0  0  0  0  0  0  0  0  0  0  0  0
  -23.9983   14.6950  -29.3942 C   0  0  0  0  0  0  0  0  0  0  0  0
  -16.2882   15.0159  -27.6648 O   0  0  0  0  0  0  0  0  0  0  0  0
  -18.5466   15.2416  -28.4081 C   0  0  0  0  0  0  0  0  0  0  0  0
  -21.3476   16.3341  -30.5525 C   0  0  0  0  0  0  0  0  0  0  0  0
  -24.0087   17.3263  -30.3205 C   0  0  0  0  0  0  0  0  0  0  0  0
  -15.5323   15.6036  -26.6342 C   0  0  0  0  0  0  0  0  0  0  0  0
  -17.6368   16.3916  -26.4367 C   0  0  0  0  0  0  0  0  0  0  0  0
  -20.4644   16.4129  -27.4367 C   0  0  0  0  0  0  0  0  0  0  0  0
  -20.0053   17.0978  -26.3155 C   0  0  0  0  0  0  0  0  0  0  0  0
  -23.4984   16.0984  -29.6381 C   0  0  0  0  0  0  0  0  0  0  0  0
  -21.9268   16.4631  -27.8217 C   0  0  0  0  0  0  0  0  0  0  0  0
  -16.3130   16.4460  -25.8931 C   0  0  0  0  0  0  0  0  0  0  0  0
  -18.6897   17.0886  -25.8950 C   0  0  0  0  0  0  0  0  0  0  0  0
  -22.0968   16.1758  -29.3001 N   0  0  0  0  0  0  0  0  0  0  0  0
  -17.5881   15.5290  -27.5228 C   0  0  0  0  0  0  0  0  0  0  0  0
  1  4  2  0
  1  9  1  0
  2 11  1  0
  3  7  1  0
  3 16  1  0
  4 16  1  0
  5 15  1  0
  6 11  1  0
  7 13  1  0
  8 13  1  0
  8 14  1  0
  8 16  2  0
  9 10  2  0
  9 12  1  0
 10 14  1  0
 11 15  1  0
 12 15  1  0
M  END
$$$$
