
     RDKit          3D

 25 26  0  0  0  0  0  0  0  0999 V2000
  -16.1725   15.8936  -27.3120 C   0  0  0  0  0  0  0  0  0  0  0  0
  -13.7763   15.2579  -27.9622 C   0  0  0  0  0  0  0  0  0  0  0  0
  -20.0277   16.4139  -31.9865 C   0  0  0  0  0  0  0  0  0  0  0  0
  -16.0896   17.0214  -26.3862 C   0  0  0  0  0  0  0  0  0  0  0  0
  -19.8851   15.7482  -28.6203 C   0  0  0  0  0  0  0  0  0  0  0  0
  -17.2450   16.3190  -26.3566 C   0  0  0  0  0  0  0  0  0  0  0  0
  -15.0111   16.1553  -28.3949 C   0  0  0  0  0  0  0  0  0  0  0  0
  -15.6527   15.6274  -29.7714 C   0  0  0  0  0  0  0  0  0  0  0  0
  -17.0896   18.0262  -31.2988 O   0  0  0  0  0  0  0  0  0  0  0  0
  -19.5764   18.6260  -31.1540 C   0  0  0  0  0  0  0  0  0  0  0  0
  -18.3274   18.1550  -31.9046 C   0  0  0  0  0  0  0  0  0  0  0  0
  -19.1315   14.3104  -31.4250 O   0  0  0  0  0  0  0  0  0  0  0  0
  -19.1083   18.2010  -28.6994 O   0  0  0  0  0  0  0  0  0  0  0  0
  -16.3202   13.3905  -27.0470 C   0  0  0  0  0  0  0  0  0  0  0  0
  -14.5386   17.6246  -28.5906 C   0  0  0  0  0  0  0  0  0  0  0  0
  -18.4301   18.2522  -27.4469 C   0  0  0  0  0  0  0  0  0  0  0  0
  -21.4095   17.5860  -28.6521 O   0  0  0  0  0  0  0  0  0  0  0  0
  -16.5671   14.4448  -29.3535 C   0  0  0  0  0  0  0  0  0  0  0  0
  -19.6729   16.6880  -25.8794 C   0  0  0  0  0  0  0  0  0  0  0  0
  -20.1534   17.1802  -29.1168 C   0  0  0  0  0  0  0  0  0  0  0  0
  -20.2681   17.2451  -30.7472 C   0  0  0  0  0  0  0  0  0  0  0  0
  -18.4395   17.0167  -26.6503 C   0  0  0  0  0  0  0  0  0  0  0  0
  -18.7388   16.9354  -32.6555 C   0  0  0  0  0  0  0  0  0  0  0  0
  -20.1285   14.9504  -32.1551 C   0  0  0  0  0  0  0  0  0  0  0  0
  -16.8012   14.5393  -27.8534 C   0  0  0  0  0  0  0  0  0  0  0  0
  1  4  1  0
  1  7  1  0
  1 25  1  0
  2  7  1  0
  3 21  1  0
  3 23  1  0
  3 24  1  0
  4  6  1  0
  5 20  1  0
  6 22  1  0
  7  8  1  0
  7 15  1  0
  8 18  1  0
  9 11  1  0
 10 11  1  0
 10 21  1  0
 11 23  1  0
 12 24  1  0
 13 16  1  0
 13 20  1  0
 14 25  1  0
 16 22  1  0
 17 20  1  0
 18 25  1  0
 19 22  1  0
 20 21  1  0
M  END
$$$$
