
     RDKit          3D

 22 23  0  0  0  0  0  0  0  0999 V2000
  -18.8351   17.0195  -31.1341 C   0  0  0  0  0  0  0  0  0  0  0  0
  -20.6718   16.4940  -29.3876 C   0  0  0  0  0  0  0  0  0  0  0  0
  -21.4413   17.3755  -26.6471 C   0  0  0  0  0  0  0  0  0  0  0  0
  -19.3294   15.9770  -30.0602 C   0  0  0  0  0  0  0  0  0  0  0  0
  -18.1242   14.9608  -29.8753 C   0  0  0  0  0  0  0  0  0  0  0  0
  -15.0421   13.4773  -26.5061 C   0  0  0  0  0  0  0  0  0  0  0  0
  -21.5614   17.0147  -30.5566 C   0  0  0  0  0  0  0  0  0  0  0  0
  -13.9246   14.1927  -27.2014 C   0  0  0  0  0  0  0  0  0  0  0  0
  -19.4384   18.2664  -31.6403 C   0  0  0  0  0  0  0  0  0  0  0  0
  -16.6360   15.8570  -26.4599 C   0  0  0  0  0  0  0  0  0  0  0  0
  -22.9629   17.1711  -29.9999 C   0  0  0  0  0  0  0  0  0  0  0  0
  -16.8354   15.0060  -28.9403 C   0  0  0  0  0  0  0  0  0  0  0  0
  -18.8500   15.2817  -27.5435 C   0  0  0  0  0  0  0  0  0  0  0  0
  -21.4876   16.6757  -28.0691 C   0  0  0  0  0  0  0  0  0  0  0  0
  -15.2293   16.3158  -26.8847 C   0  0  0  0  0  0  0  0  0  0  0  0
  -17.3449   14.8906  -27.4588 C   0  0  0  0  0  0  0  0  0  0  0  0
  -22.9267   16.8944  -28.5563 C   0  0  0  0  0  0  0  0  0  0  0  0
  -20.1477   17.1729  -25.9456 C   0  0  0  0  0  0  0  0  0  0  0  0
  -19.2078   16.3426  -26.6133 O   0  0  0  0  0  0  0  0  0  0  0  0
  -17.5898   16.7796  -31.5611 O   0  0  0  0  0  0  0  0  0  0  0  0
  -23.9024   17.2782  -27.5550 C   0  0  0  0  0  0  0  0  0  0  0  0
  -14.3764   15.4820  -27.9032 C   0  0  0  0  0  0  0  0  0  0  0  0
  1  4  2  3
  1  9  1  0
  1 20  1  0
  2  4  1  0
  2  7  1  0
  2 14  1  0
  3 14  1  0
  3 18  1  0
  4  5  1  0
  5 12  1  0
  6  8  1  0
  7 11  1  0
  8 22  1  0
 10 15  1  0
 10 16  1  0
 11 17  1  0
 12 16  1  0
 13 16  1  0
 13 19  1  0
 14 17  1  0
 15 22  1  0
 17 21  1  0
 18 19  1  0
M  END
$$$$
