
     RDKit          3D

 19 21  0  0  0  0  0  0  0  0999 V2000
  -17.9592   15.9752  -28.8938 C   0  0  0  0  0  0  0  0  0  0  0  0
  -15.5024   17.7653  -26.0298 C   0  0  0  0  0  0  0  0  0  0  0  0
  -19.7287   15.8638  -30.4165 C   0  0  0  0  0  0  0  0  0  0  0  0
  -17.5056   15.1809  -30.0229 C   0  0  0  0  0  0  0  0  0  0  0  0
  -19.3086   16.3144  -29.1474 N   0  0  0  0  0  0  0  0  0  0  0  0
  -23.7886   13.9464  -29.5922 C   0  0  0  0  0  0  0  0  0  0  0  0
  -24.0202   12.7818  -30.6765 C   0  0  0  0  0  0  0  0  0  0  0  0
  -17.9706   17.4489  -25.8778 C   0  0  0  0  0  0  0  0  0  0  0  0
  -18.5336   15.3150  -31.0471 C   0  0  0  0  0  0  0  0  0  0  0  0
  -19.8010   17.2024  -28.0504 C   0  0  0  0  0  0  0  0  0  0  0  0
  -18.0865   17.4635  -24.3699 C   0  0  0  0  0  0  0  0  0  0  0  0
  -15.4286   15.3984  -26.4513 C   0  0  0  0  0  0  0  0  0  0  0  0
  -17.1237   16.0593  -27.6637 C   0  0  0  0  0  0  0  0  0  0  0  0
  -23.3395   15.1449  -30.2777 C   0  0  0  0  0  0  0  0  0  0  0  0
  -16.0548   15.0265  -27.7535 C   0  0  0  0  0  0  0  0  0  0  0  0
  -19.2396   17.1287  -26.6551 C   0  0  0  0  0  0  0  0  0  0  0  0
  -22.0905   15.2913  -30.7576 N   0  0  0  0  0  0  0  0  0  0  0  0
  -16.6530   16.6717  -26.3200 C   0  0  0  0  0  0  0  0  0  0  0  0
  -20.8944   15.6788  -31.2175 C   0  0  0  0  0  0  0  0  0  0  0  0
  1  4  1  0
  1  5  1  0
  1 13  1  0
  2 18  1  0
  3  5  1  0
  3  9  1  0
  3 19  1  0
  4  9  1  0
  5 10  1  0
  6  7  1  0
  6 14  1  0
  8 11  1  0
  8 16  1  0
  8 18  1  0
 10 16  1  0
 12 15  1  0
 12 18  1  0
 13 15  1  0
 13 18  1  0
 14 17  1  0
 17 19  1  0
M  END
$$$$
