
     RDKit          3D

 19 19  0  0  0  0  0  0  0  0999 V2000
  -21.7558   16.3682  -26.5479 N   0  0  0  0  0  0  0  0  0  0  0  0
  -21.0426   17.0255  -30.9737 C   0  0  0  0  0  0  0  0  0  0  0  0
  -21.3627   16.2240  -28.8459 N   0  0  0  0  0  0  0  0  0  0  0  0
  -19.6960   16.9776  -27.2457 C   0  0  0  0  0  0  0  0  0  0  0  0
  -17.3627   14.7260  -30.0887 O   0  0  0  0  0  0  0  0  0  0  0  0
  -17.8282   14.8796  -27.5919 C   0  0  0  0  0  0  0  0  0  0  0  0
  -20.6176   16.8716  -26.2433 C   0  0  0  0  0  0  0  0  0  0  0  0
  -23.2412   15.3802  -27.9350 O   0  0  0  0  0  0  0  0  0  0  0  0
  -14.4592   14.2063  -26.4380 C   0  0  0  0  0  0  0  0  0  0  0  0
  -16.7719   16.8878  -28.9636 O   0  0  0  0  0  0  0  0  0  0  0  0
  -19.6886   16.4170  -30.9284 C   0  0  0  0  0  0  0  0  0  0  0  0
  -19.1286   16.4104  -29.6255 O   0  0  0  0  0  0  0  0  0  0  0  0
  -21.9145   16.3031  -30.1076 O   0  0  0  0  0  0  0  0  0  0  0  0
  -17.6946   15.7527  -29.1017 S   0  0  0  0  0  0  0  0  0  0  0  0
  -20.3232   17.4156  -24.9522 C   0  0  0  0  0  0  0  0  0  0  0  0
  -15.6133   13.5555  -27.2658 C   0  0  0  0  0  0  0  0  0  0  0  0
  -20.1061   16.5356  -28.5290 C   0  0  0  0  0  0  0  0  0  0  0  0
  -22.1685   15.9552  -27.7614 C   0  0  0  0  0  0  0  0  0  0  0  0
  -16.6529   14.2097  -27.4090 N   0  0  0  0  0  0  0  0  0  0  0  0
  1  7  2  0
  1 18  1  0
  2 11  1  0
  2 13  1  0
  3 13  1  0
  3 17  1  0
  3 18  1  0
  4  7  1  0
  4 17  2  0
  5 14  1  0
  6 14  1  0
  6 19  1  0
  7 15  1  0
  8 18  2  0
  9 16  1  0
 10 14  1  0
 11 12  1  0
 12 14  1  0
 16 19  1  0
M  END
$$$$
