
     RDKit          3D

 25 26  0  0  0  0  0  0  0  0999 V2000
  104.3827    5.1450  -91.6094 C   0  0  0  0  0  0  0  0  0  0  0  0
   98.6628    7.7752  -90.0995 C   0  0  0  0  0  0  0  0  0  0  0  0
  106.3098    3.7702  -92.7678 O   0  0  0  0  0  0  0  0  0  0  0  0
   98.8816   10.0497  -90.9911 C   0  0  0  0  0  0  0  0  0  0  0  0
  100.2739    4.1815  -92.2794 C   0  0  0  0  0  0  0  0  0  0  0  0
  102.1846    8.3352  -91.4517 C   0  0  0  0  0  0  0  0  0  0  0  0
  100.2349    9.7946  -91.2524 C   0  0  0  0  0  0  0  0  0  0  0  0
  100.7800    8.5379  -91.0516 C   0  0  0  0  0  0  0  0  0  0  0  0
   99.7803    5.2455  -89.0322 C   0  0  0  0  0  0  0  0  0  0  0  0
  104.3489    6.6258  -90.9338 C   0  0  0  0  0  0  0  0  0  0  0  0
  100.9324    5.1112  -91.1705 C   0  0  0  0  0  0  0  0  0  0  0  0
   99.5932    3.0400  -92.2105 O   0  0  0  0  0  0  0  0  0  0  0  0
  102.7872    6.9895  -91.1122 N   0  0  0  0  0  0  0  0  0  0  0  0
  100.4579    6.0898  -90.0684 N   0  0  0  0  0  0  0  0  0  0  0  0
  102.3739    5.5483  -91.6836 C   0  0  0  0  0  0  0  0  0  0  0  0
  101.1895    4.0763  -93.4852 N   0  0  0  0  0  0  0  0  0  0  0  0
   99.9892    7.4824  -90.4328 C   0  0  0  0  0  0  0  0  0  0  0  0
   98.0936    9.0220  -90.4075 C   0  0  0  0  0  0  0  0  0  0  0  0
  100.2302    3.8673  -88.9067 O   0  0  0  0  0  0  0  0  0  0  0  0
  101.7082    2.8734  -94.1140 C   0  0  0  0  0  0  0  0  0  0  0  0
  105.7735    4.5184  -91.6938 C   0  0  0  0  0  0  0  0  0  0  0  0
  106.3996    4.5017  -90.5409 O   0  0  0  0  0  0  0  0  0  0  0  0
  102.8391    9.1521  -92.1574 O   0  0  0  0  0  0  0  0  0  0  0  0
  100.8265    1.9470  -94.9208 C   0  0  0  0  0  0  0  0  0  0  0  0
  101.3275    5.1553  -94.2814 O   0  0  0  0  0  0  0  0  0  0  0  0
  1 10  1  0
  1 21  1  0
  2 17  1  0
  2 18  2  0
  3 21  2  0
  4  7  1  0
  4 18  1  0
  5 11  1  0
  5 12  2  0
  5 16  1  0
  6  8  1  0
  6 13  1  0
  6 23  2  0
  7  8  2  0
  8 17  1  0
  9 14  1  0
  9 19  1  0
 10 13  1  0
 11 14  1  0
 11 15  1  0
 13 15  1  0
 14 17  1  0
 16 20  1  0
 16 25  1  0
 20 24  1  0
 21 22  1  0
M  END
$$$$
