
     RDKit          3D

 65 69  0  0  0  0  0  0  0  0999 V2000
   98.8761    4.4116  -87.7743 C   0  0  0  0  0  0  0  0  0  0  0  0
   98.2463    5.5764  -92.1465 C   0  0  0  0  0  0  0  0  0  0  0  0
  103.0995    5.7088  -88.7641 C   0  0  0  0  0  0  0  0  0  0  0  0
   99.5102   10.6352  -91.3279 C   0  0  0  0  0  0  0  0  0  0  0  0
   96.8277    4.8218  -91.6514 C   0  0  0  0  0  0  0  0  0  0  0  0
   97.7705    3.7517  -86.7729 C   0  0  0  0  0  0  0  0  0  0  0  0
   97.8141    2.3685  -87.4411 C   0  0  0  0  0  0  0  0  0  0  0  0
   99.8890    5.3013  -83.9057 C   0  0  0  0  0  0  0  0  0  0  0  0
  104.7841    4.0455  -92.2138 C   0  0  0  0  0  0  0  0  0  0  0  0
  101.4699    3.4130  -94.3765 C   0  0  0  0  0  0  0  0  0  0  0  0
  102.1633    4.6477  -85.9563 O   0  0  0  0  0  0  0  0  0  0  0  0
   97.9774    4.3196  -89.1839 C   0  0  0  0  0  0  0  0  0  0  0  0
   97.3661    9.3025  -90.1212 C   0  0  0  0  0  0  0  0  0  0  0  0
  103.8141    6.1479  -89.9654 C   0  0  0  0  0  0  0  0  0  0  0  0
   97.9591    4.4363  -85.3313 C   0  0  0  0  0  0  0  0  0  0  0  0
   99.6954    9.3226  -91.0088 C   0  0  0  0  0  0  0  0  0  0  0  0
  100.3138    5.4458  -93.0221 O   0  0  0  0  0  0  0  0  0  0  0  0
   95.6811    5.0755  -89.3876 O   0  0  0  0  0  0  0  0  0  0  0  0
  105.4723    1.9532  -93.9866 O   0  0  0  0  0  0  0  0  0  0  0  0
  105.0894    5.7214  -90.5559 C   0  0  0  0  0  0  0  0  0  0  0  0
   99.1646    5.2804  -92.3609 C   0  0  0  0  0  0  0  0  0  0  0  0
  103.2109    9.0957  -91.6731 C   0  0  0  0  0  0  0  0  0  0  0  0
   96.2095    5.8692  -86.7374 O   0  0  0  0  0  0  0  0  0  0  0  0
   98.9053    4.0158  -91.5420 C   0  0  0  0  0  0  0  0  0  0  0  0
  100.2444    6.5099  -92.3585 C   0  0  0  0  0  0  0  0  0  0  0  0
  105.1591    4.2906  -90.7967 N   0  0  0  0  0  0  0  0  0  0  0  0
   96.4769    7.1352  -87.3895 C   0  0  0  0  0  0  0  0  0  0  0  0
  100.2060    3.8043  -87.0411 C   0  0  0  0  0  0  0  0  0  0  0  0
   98.7747    5.7990  -83.0362 C   0  0  0  0  0  0  0  0  0  0  0  0
  107.5394    8.5061  -91.9152 C   0  0  0  0  0  0  0  0  0  0  0  0
  102.2149    9.4719  -90.8645 C   0  0  0  0  0  0  0  0  0  0  0  0
  101.4392    4.6485  -87.0589 C   0  0  0  0  0  0  0  0  0  0  0  0
  105.2746    1.6703  -91.7708 C   0  0  0  0  0  0  0  0  0  0  0  0
   95.4791    7.7792  -88.2085 C   0  0  0  0  0  0  0  0  0  0  0  0
   99.2221    3.0258  -91.9881 O   0  0  0  0  0  0  0  0  0  0  0  0
  105.2022    1.8906  -90.7656 O   0  0  0  0  0  0  0  0  0  0  0  0
  104.6404    0.9775  -94.2907 C   0  0  0  0  0  0  0  0  0  0  0  0
  101.8539    5.0475  -88.3692 O   0  0  0  0  0  0  0  0  0  0  0  0
   96.4685    4.5722  -87.2269 C   0  0  0  0  0  0  0  0  0  0  0  0
  104.7327    8.5215  -91.1419 C   0  0  0  0  0  0  0  0  0  0  0  0
   97.1188    4.2031  -84.0827 C   0  0  0  0  0  0  0  0  0  0  0  0
   96.0114    9.4650  -89.7531 C   0  0  0  0  0  0  0  0  0  0  0  0
  105.2040    2.6896  -92.8286 C   0  0  0  0  0  0  0  0  0  0  0  0
  103.9514    5.7800  -87.6899 O   0  0  0  0  0  0  0  0  0  0  0  0
  106.4361    6.4077  -90.3295 C   0  0  0  0  0  0  0  0  0  0  0  0
   96.5423    4.4385  -88.7277 C   0  0  0  0  0  0  0  0  0  0  0  0
   97.8890    4.5263  -82.7558 C   0  0  0  0  0  0  0  0  0  0  0  0
   99.4029    4.3328  -84.8664 C   0  0  0  0  0  0  0  0  0  0  0  0
   95.1692    8.6040  -89.1597 C   0  0  0  0  0  0  0  0  0  0  0  0
  102.0472    1.0095  -94.9088 C   0  0  0  0  0  0  0  0  0  0  0  0
  103.3630    1.5839  -94.6039 C   0  0  0  0  0  0  0  0  0  0  0  0
  100.0376    3.3245  -85.6359 O   0  0  0  0  0  0  0  0  0  0  0  0
  100.9602    8.7533  -91.2425 N   0  0  0  0  0  0  0  0  0  0  0  0
   98.5671   11.3971  -91.2027 C   0  0  0  0  0  0  0  0  0  0  0  0
   98.0444    7.0415  -83.6763 C   0  0  0  0  0  0  0  0  0  0  0  0
  101.2040    7.5941  -91.9846 C   0  0  0  0  0  0  0  0  0  0  0  0
   97.8016   12.4575  -91.1989 C   0  0  0  0  0  0  0  0  0  0  0  0
  101.3560    4.8864  -93.7960 C   0  0  0  0  0  0  0  0  0  0  0  0
  100.8820    1.9906  -94.8801 C   0  0  0  0  0  0  0  0  0  0  0  0
   97.7360    4.1702  -90.7149 C   0  0  0  0  0  0  0  0  0  0  0  0
  101.7009   -0.2210  -94.4591 O   0  0  0  0  0  0  0  0  0  0  0  0
  106.3337    8.1764  -90.6926 S   0  0  0  0  0  0  0  0  0  0  0  0
  104.4562    9.7860  -91.8463 C   0  0  0  0  0  0  0  0  0  0  0  0
   98.4655    8.7230  -90.4439 C   0  0  0  0  0  0  0  0  0  0  0  0
  106.5643    8.8780  -89.3223 O   0  0  0  0  0  0  0  0  0  0  0  0
  1  6  1  0
  1 12  1  0
  1 28  1  0
  2  5  1  0
  2 21  1  0
  3 14  1  0
  3 38  1  0
  3 44  2  0
  4 16  2  3
  4 54  1  0
  5 60  1  0
  6  7  1  0
  6 15  1  0
  6 39  1  0
  8 29  1  0
  8 48  1  0
  9 26  1  0
  9 43  1  0
 10 58  1  0
 10 59  1  0
 11 32  2  0
 12 46  1  0
 12 60  1  0
 13 42  2  0
 13 64  2  0
 14 20  1  0
 15 41  1  0
 15 48  1  0
 16 53  1  0
 16 64  1  0
 17 21  1  0
 17 25  1  0
 18 46  2  0
 19 37  1  0
 19 43  1  0
 20 26  1  0
 20 45  1  0
 21 24  1  0
 22 31  1  0
 22 63  1  0
 23 27  1  0
 23 39  1  0
 24 35  2  0
 24 60  1  0
 25 56  2  3
 27 34  1  0
 28 32  1  0
 28 52  1  0
 29 47  1  0
 29 55  1  0
 30 62  1  0
 31 53  1  0
 32 38  1  0
 33 36  2  0
 33 43  1  0
 34 49  2  3
 37 51  1  0
 39 46  1  0
 40 62  1  0
 40 63  1  0
 41 47  1  0
 42 49  1  0
 48 52  1  0
 50 51  1  0
 50 59  1  0
 50 61  1  0
 53 56  1  0
 54 57  1  0
 62 65  1  0
M  END
$$$$
