
     RDKit          3D

 26 27  0  0  0  0  0  0  0  0999 V2000
   98.4722    7.9020  -90.2157 N   0  0  0  0  0  0  0  0  0  0  0  0
  101.6088    8.8627  -91.3488 N   0  0  0  0  0  0  0  0  0  0  0  0
   97.5252   11.5314  -90.8462 C   0  0  0  0  0  0  0  0  0  0  0  0
  100.2822    4.0901  -89.9244 O   0  0  0  0  0  0  0  0  0  0  0  0
  105.4296    4.0767  -91.7510 C   0  0  0  0  0  0  0  0  0  0  0  0
   99.7287    7.9336  -90.7063 C   0  0  0  0  0  0  0  0  0  0  0  0
  102.0058    3.9944  -91.9245 O   0  0  0  0  0  0  0  0  0  0  0  0
  100.6886    3.0370  -87.7405 O   0  0  0  0  0  0  0  0  0  0  0  0
  100.5883    6.9671  -90.9180 N   0  0  0  0  0  0  0  0  0  0  0  0
   99.8138    4.9682  -92.1739 C   0  0  0  0  0  0  0  0  0  0  0  0
  100.3153    9.1057  -91.0507 C   0  0  0  0  0  0  0  0  0  0  0  0
  101.7556    7.5275  -91.3229 C   0  0  0  0  0  0  0  0  0  0  0  0
  100.7587    4.4217  -88.2950 P   0  0  0  0  0  0  0  0  0  0  0  0
  104.2737    4.3221  -92.3700 N   0  0  0  0  0  0  0  0  0  0  0  0
   99.6012   10.3003  -91.0305 N   0  0  0  0  0  0  0  0  0  0  0  0
  105.6509    4.6705  -90.6627 O   0  0  0  0  0  0  0  0  0  0  0  0
  105.9659    2.7386  -92.1683 C   0  0  0  0  0  0  0  0  0  0  0  0
  101.2000    4.7969  -92.9281 C   0  0  0  0  0  0  0  0  0  0  0  0
   99.8048    5.2620  -87.4197 O   0  0  0  0  0  0  0  0  0  0  0  0
   97.7384    9.0434  -90.2758 C   0  0  0  0  0  0  0  0  0  0  0  0
  102.2828    5.2728  -88.4662 C   0  0  0  0  0  0  0  0  0  0  0  0
  105.7107    2.3693  -93.4723 O   0  0  0  0  0  0  0  0  0  0  0  0
  103.1881    3.4598  -92.3830 C   0  0  0  0  0  0  0  0  0  0  0  0
  101.5556    4.3376  -94.1933 O   0  0  0  0  0  0  0  0  0  0  0  0
  100.2360    5.4906  -90.7255 C   0  0  0  0  0  0  0  0  0  0  0  0
   98.3139   10.2829  -90.7442 C   0  0  0  0  0  0  0  0  0  0  0  0
  1  6  2  0
  1 20  1  0
  2 11  2  0
  2 12  1  0
  3 26  1  0
  4 13  1  0
  4 25  1  0
  5 14  1  0
  5 16  2  0
  5 17  1  0
  6  9  1  0
  6 11  1  0
  7 18  1  0
  7 23  1  0
  8 13  1  0
  9 12  1  0
  9 25  1  0
 10 18  1  0
 10 25  1  0
 11 15  1  0
 13 19  1  0
 13 21  1  0
 14 23  1  0
 15 26  2  0
 17 22  1  0
 18 24  1  0
 20 26  1  0
M  END
$$$$
