
     RDKit          3D

 22 23  0  0  0  0  0  0  0  0999 V2000
  100.3515    5.6453  -92.7834 O   0  0  0  0  0  0  0  0  0  0  0  0
  102.2842    2.9581  -92.9086 C   0  0  0  0  0  0  0  0  0  0  0  0
  101.0161    6.1036  -91.4515 C   0  0  0  0  0  0  0  0  0  0  0  0
  100.4092    5.1095  -90.3338 C   0  0  0  0  0  0  0  0  0  0  0  0
  101.3589    8.6253  -91.5192 C   0  0  0  0  0  0  0  0  0  0  0  0
   98.8195   11.4140  -91.2884 C   0  0  0  0  0  0  0  0  0  0  0  0
  100.9402    2.3569  -92.6365 O   0  0  0  0  0  0  0  0  0  0  0  0
  105.9582    4.4673  -90.6962 O   0  0  0  0  0  0  0  0  0  0  0  0
  102.5159    5.6772  -91.5693 N   0  0  0  0  0  0  0  0  0  0  0  0
  106.1157    3.5454  -92.8572 O   0  0  0  0  0  0  0  0  0  0  0  0
   98.8421    4.6681  -88.3568 O   0  0  0  0  0  0  0  0  0  0  0  0
  100.5561    7.5459  -91.2130 C   0  0  0  0  0  0  0  0  0  0  0  0
   99.4552   10.0915  -91.1375 C   0  0  0  0  0  0  0  0  0  0  0  0
   98.5891    6.6021  -89.9811 C   0  0  0  0  0  0  0  0  0  0  0  0
   99.4920    5.6554  -89.1602 C   0  0  0  0  0  0  0  0  0  0  0  0
  100.7787    9.8043  -91.3680 C   0  0  0  0  0  0  0  0  0  0  0  0
   99.2980    7.7596  -90.6774 C   0  0  0  0  0  0  0  0  0  0  0  0
   98.7242    9.0035  -90.7049 C   0  0  0  0  0  0  0  0  0  0  0  0
  105.4442    4.3149  -91.8773 C   0  0  0  0  0  0  0  0  0  0  0  0
  103.1869    3.3393  -91.8661 C   0  0  0  0  0  0  0  0  0  0  0  0
  103.9077    4.7115  -91.8891 C   0  0  0  0  0  0  0  0  0  0  0  0
   97.2669    6.3099  -89.9314 O   0  0  0  0  0  0  0  0  0  0  0  0
  1  3  1  0
  2  7  1  0
  2 20  1  0
  3  4  1  0
  3  9  1  0
  3 12  1  0
  4 15  1  0
  5 12  1  0
  5 16  1  0
  6 13  1  0
  8 19  2  0
  9 21  1  0
 10 19  1  0
 11 15  1  0
 12 17  1  0
 13 16  1  0
 13 18  1  0
 14 15  1  0
 14 17  1  0
 14 22  1  0
 17 18  2  0
 19 21  1  0
 20 21  1  0
M  END
$$$$
