
     RDKit          3D

 25 26  0  0  0  0  0  0  0  0999 V2000
   97.7628    4.3888  -89.0975 C   0  0  0  0  0  0  0  0  0  0  0  0
  101.8723    3.0536  -91.7776 O   0  0  0  0  0  0  0  0  0  0  0  0
  101.5500    6.3003  -91.8452 C   0  0  0  0  0  0  0  0  0  0  0  0
   99.4330    5.7618  -92.5602 N   0  0  0  0  0  0  0  0  0  0  0  0
   98.2373    9.8928  -91.0717 C   0  0  0  0  0  0  0  0  0  0  0  0
   99.8249    8.1060  -91.2100 C   0  0  0  0  0  0  0  0  0  0  0  0
  100.3822   10.2229  -91.1311 C   0  0  0  0  0  0  0  0  0  0  0  0
   98.5395    8.5194  -91.1418 C   0  0  0  0  0  0  0  0  0  0  0  0
  104.0471    3.9341  -92.0620 C   0  0  0  0  0  0  0  0  0  0  0  0
  105.9470    2.4164  -91.6959 C   0  0  0  0  0  0  0  0  0  0  0  0
   99.3359    6.0365  -90.2396 N   0  0  0  0  0  0  0  0  0  0  0  0
  104.4943    2.5625  -91.4660 C   0  0  0  0  0  0  0  0  0  0  0  0
  106.1907    2.7073  -92.9711 O   0  0  0  0  0  0  0  0  0  0  0  0
  103.1428    9.3846  -92.0816 O   0  0  0  0  0  0  0  0  0  0  0  0
  100.9303    5.3737  -93.0308 C   0  0  0  0  0  0  0  0  0  0  0  0
   98.4210    5.4466  -88.2610 C   0  0  0  0  0  0  0  0  0  0  0  0
   99.2316   10.8531  -91.1089 C   0  0  0  0  0  0  0  0  0  0  0  0
  100.1524    6.6458  -91.2832 C   0  0  0  0  0  0  0  0  0  0  0  0
  100.8838    9.0870  -91.2399 C   0  0  0  0  0  0  0  0  0  0  0  0
  102.3117    5.2678  -91.1004 O   0  0  0  0  0  0  0  0  0  0  0  0
  102.6609    4.0513  -91.6979 C   0  0  0  0  0  0  0  0  0  0  0  0
   99.1907    6.1630  -89.0552 N   0  0  0  0  0  0  0  0  0  0  0  0
   97.9801    4.4171  -90.2631 N   0  0  0  0  0  0  0  0  0  0  0  0
  106.5738    2.2504  -90.5002 O   0  0  0  0  0  0  0  0  0  0  0  0
  102.2763    8.7524  -91.3717 C   0  0  0  0  0  0  0  0  0  0  0  0
  1 16  1  0
  1 23  2  0
  2 21  2  0
  3 15  1  0
  3 18  1  0
  3 20  1  0
  4 15  1  0
  4 18  1  0
  5  8  1  0
  5 17  1  0
  6  8  2  0
  6 18  1  0
  6 19  1  0
  7 17  1  0
  7 19  2  0
  9 12  1  0
  9 21  1  0
 10 12  1  0
 10 13  2  0
 10 24  1  0
 11 18  1  0
 11 22  2  3
 14 25  1  0
 16 22  1  0
 19 25  1  0
 20 21  1  0
M  END
$$$$
