
     RDKit          3D

 28 30  0  0  0  0  0  0  0  0999 V2000
  103.4022    3.6143  -91.7170 C   0  0  0  0  0  0  0  0  0  0  0  0
   99.4782    9.9610  -91.3292 C   0  0  0  0  0  0  0  0  0  0  0  0
  101.2880    8.4165  -91.5026 C   0  0  0  0  0  0  0  0  0  0  0  0
  104.7417    5.6622  -90.7265 C   0  0  0  0  0  0  0  0  0  0  0  0
  102.8044    2.3196  -91.1088 O   0  0  0  0  0  0  0  0  0  0  0  0
  107.1301    6.1237  -90.1939 O   0  0  0  0  0  0  0  0  0  0  0  0
  103.4327    6.2651  -91.1262 N   0  0  0  0  0  0  0  0  0  0  0  0
  100.9915    3.7728  -92.6617 C   0  0  0  0  0  0  0  0  0  0  0  0
   98.5780    8.9597  -91.2044 C   0  0  0  0  0  0  0  0  0  0  0  0
  100.7788    2.5312  -92.8126 O   0  0  0  0  0  0  0  0  0  0  0  0
  106.0762    6.3014  -91.0900 C   0  0  0  0  0  0  0  0  0  0  0  0
   99.0045    7.6215  -91.3228 C   0  0  0  0  0  0  0  0  0  0  0  0
  104.6724    4.2733  -91.3579 C   0  0  0  0  0  0  0  0  0  0  0  0
  102.1700    5.7274  -91.7501 C   0  0  0  0  0  0  0  0  0  0  0  0
  101.8947    4.4524  -93.5576 O   0  0  0  0  0  0  0  0  0  0  0  0
   99.4715    3.9130  -90.7843 O   0  0  0  0  0  0  0  0  0  0  0  0
  106.2232    7.3779  -92.0264 C   0  0  0  0  0  0  0  0  0  0  0  0
   98.9309   11.5700  -91.5424 Cl  0  0  0  0  0  0  0  0  0  0  0  0
   98.1167    6.6120  -91.1323 O   0  0  0  0  0  0  0  0  0  0  0  0
  106.9992    7.3512  -92.9381 O   0  0  0  0  0  0  0  0  0  0  0  0
   99.9586    4.6835  -92.0314 C   0  0  0  0  0  0  0  0  0  0  0  0
  100.7353    6.0107  -92.0965 C   0  0  0  0  0  0  0  0  0  0  0  0
  100.8662    9.6872  -91.3286 C   0  0  0  0  0  0  0  0  0  0  0  0
  104.5063    5.8781  -89.2027 C   0  0  0  0  0  0  0  0  0  0  0  0
  105.4872    8.4198  -91.8507 O   0  0  0  0  0  0  0  0  0  0  0  0
  100.3564    7.3313  -91.5976 C   0  0  0  0  0  0  0  0  0  0  0  0
  102.3934    4.4126  -92.3803 C   0  0  0  0  0  0  0  0  0  0  0  0
  105.6810    3.3791  -90.9973 O   0  0  0  0  0  0  0  0  0  0  0  0
  1  5  1  0
  1 13  1  0
  1 27  1  0
  2  9  2  0
  2 18  1  0
  2 23  1  0
  3 23  2  0
  3 26  1  0
  4  7  1  0
  4 11  1  0
  4 13  1  0
  4 24  1  0
  6 11  1  0
  7 14  1  0
  8 10  2  0
  8 15  1  0
  8 21  1  0
  9 12  1  0
 11 17  1  0
 12 19  1  0
 12 26  1  0
 13 28  1  0
 14 22  1  0
 14 27  1  0
 15 27  1  0
 16 21  1  0
 17 20  2  0
 17 25  1  0
 21 22  1  0
 22 26  1  0
M  END
$$$$
