
     RDKit          3D

 16 15  0  0  0  0  0  0  0  0999 V2000
   22.2843   23.0434   20.4229 O   0  0  0  0  0  0  0  0  0  0  0  0
   22.9901   21.1167   22.9020 O   0  0  0  0  0  0  0  0  0  0  0  0
   24.1814   19.4404   22.0167 O   0  0  0  0  0  0  0  0  0  0  0  0
   23.3906   20.3586   21.9010 C   0  0  0  0  0  0  0  0  0  0  0  0
   24.2226   22.1579   17.0967 C   0  0  0  0  0  0  0  0  0  0  0  0
   20.1688   24.0590   21.8895 O   0  0  0  0  0  0  0  0  0  0  0  0
   22.8436   20.9626   19.4834 O   0  0  0  0  0  0  0  0  0  0  0  0
   20.9267   23.4457   20.8840 C   0  0  0  0  0  0  0  0  0  0  0  0
   23.3222   22.9552   18.0774 C   0  0  0  0  0  0  0  0  0  0  0  0
   22.4847   20.3469   20.7058 C   0  0  0  0  0  0  0  0  0  0  0  0
   22.6688   22.3601   19.2546 C   0  0  0  0  0  0  0  0  0  0  0  0
   24.7005   24.6623   17.1185 O   0  0  0  0  0  0  0  0  0  0  0  0
   18.6673   23.2247   20.0531 O   0  0  0  0  0  0  0  0  0  0  0  0
   23.6894   24.4053   18.0970 C   0  0  0  0  0  0  0  0  0  0  0  0
   21.5707   19.1304   20.7223 C   0  0  0  0  0  0  0  0  0  0  0  0
   19.9334   22.6629   20.0804 C   0  0  0  0  0  0  0  0  0  0  0  0
  1  8  1  0
  1 11  1  0
  2  4  2  0
  3  4  1  0
  4 10  1  0
  5  9  1  0
  6  8  2  0
  7 10  1  0
  7 11  1  0
  8 16  1  0
  9 11  1  0
  9 14  1  0
 10 15  1  0
 12 14  1  0
 13 16  1  0
M  END
$$$$
