
     RDKit          3D

 24 26  0  0  0  0  0  0  0  0999 V2000
   23.0789   23.6794   17.8369 C   0  0  0  0  0  0  0  0  0  0  0  0
   25.1239   22.2561   18.0407 C   0  0  0  0  0  0  0  0  0  0  0  0
   24.2436   23.2177   18.9062 C   0  0  0  0  0  0  0  0  0  0  0  0
   20.5373   22.9298   17.8354 C   0  0  0  0  0  0  0  0  0  0  0  0
   22.4646   24.4177   16.5648 C   0  0  0  0  0  0  0  0  0  0  0  0
   18.8850   24.0474   21.7086 O   0  0  0  0  0  0  0  0  0  0  0  0
   24.0760   22.3104   21.3533 C   0  0  0  0  0  0  0  0  0  0  0  0
   20.7827   23.2845   20.8617 C   0  0  0  0  0  0  0  0  0  0  0  0
   25.4723   24.1436   19.4656 C   0  0  0  0  0  0  0  0  0  0  0  0
   26.3302   23.4644   20.3591 O   0  0  0  0  0  0  0  0  0  0  0  0
   23.3326   23.1757   20.2555 C   0  0  0  0  0  0  0  0  0  0  0  0
   22.0676   18.0105   20.8545 O   0  0  0  0  0  0  0  0  0  0  0  0
   21.1872   20.1540   20.5833 C   0  0  0  0  0  0  0  0  0  0  0  0
   22.0473   22.5062   17.9233 C   0  0  0  0  0  0  0  0  0  0  0  0
   22.4761   21.1696   18.5124 C   0  0  0  0  0  0  0  0  0  0  0  0
   20.1805   23.6517   22.0153 C   0  0  0  0  0  0  0  0  0  0  0  0
   20.1601   23.3942   16.4241 C   0  0  0  0  0  0  0  0  0  0  0  0
   23.2138   19.8851   21.9448 C   0  0  0  0  0  0  0  0  0  0  0  0
   22.0996   19.1659   21.1965 C   0  0  0  0  0  0  0  0  0  0  0  0
   21.9017   21.2141   19.9185 C   0  0  0  0  0  0  0  0  0  0  0  0
   23.1323   24.5395   20.5777 O   0  0  0  0  0  0  0  0  0  0  0  0
   21.5471   23.5329   15.6833 C   0  0  0  0  0  0  0  0  0  0  0  0
   21.9011   22.6078   20.3728 C   0  0  0  0  0  0  0  0  0  0  0  0
   23.1673   21.4244   22.2590 C   0  0  0  0  0  0  0  0  0  0  0  0
  1  3  1  0
  1  5  1  0
  1 14  1  0
  2  3  1  0
  3  9  1  0
  3 11  1  0
  4 14  1  0
  4 17  1  0
  5 22  1  0
  6 16  1  0
  7 11  1  0
  7 24  1  0
  8 16  1  0
  8 23  1  0
  9 10  1  0
 11 21  1  0
 11 23  1  0
 12 19  2  0
 13 19  1  0
 13 20  1  0
 14 15  1  0
 15 20  1  0
 17 22  1  0
 18 19  1  0
 18 24  1  0
 20 23  1  0
M  END
$$$$
