
     RDKit          3D

 19 19  0  0  0  0  0  0  0  0999 V2000
   20.9476   18.2307   20.9364 O   0  0  0  0  0  0  0  0  0  0  0  0
   19.9694   23.1339   22.6080 O   0  0  0  0  0  0  0  0  0  0  0  0
   22.0212   23.2139   16.4434 C   0  0  0  0  0  0  0  0  0  0  0  0
   23.6641   22.0864   21.4723 O   0  0  0  0  0  0  0  0  0  0  0  0
   20.6452   25.2765   21.6198 O   0  0  0  0  0  0  0  0  0  0  0  0
   23.0859   24.6504   18.2375 O   0  0  0  0  0  0  0  0  0  0  0  0
   18.9607   23.6959   20.5039 O   0  0  0  0  0  0  0  0  0  0  0  0
   22.0103   20.3425   20.9426 C   0  0  0  0  0  0  0  0  0  0  0  0
   23.1366   25.5777   17.0664 C   0  0  0  0  0  0  0  0  0  0  0  0
   21.6053   21.4588   18.7741 C   0  0  0  0  0  0  0  0  0  0  0  0
   20.2674   23.8560   21.3027 P   0  0  0  0  0  0  0  0  0  0  0  0
   22.6864   21.1202   22.0681 C   0  0  0  0  0  0  0  0  0  0  0  0
   23.1717   18.3556   20.5784 O   0  0  0  0  0  0  0  0  0  0  0  0
   23.1298   23.0682   20.5788 O   0  0  0  0  0  0  0  0  0  0  0  0
   21.6768   23.1868   20.4902 C   0  0  0  0  0  0  0  0  0  0  0  0
   22.0827   18.8208   20.9235 C   0  0  0  0  0  0  0  0  0  0  0  0
   21.3361   23.0026   18.9966 C   0  0  0  0  0  0  0  0  0  0  0  0
   22.5092   20.8290   19.7158 O   0  0  0  0  0  0  0  0  0  0  0  0
   22.2268   23.6242   17.9903 C   0  0  0  0  0  0  0  0  0  0  0  0
  1 16  2  0
  2 11  1  0
  3 19  1  0
  4 12  1  0
  4 14  1  0
  5 11  1  0
  6  9  1  0
  6 19  1  0
  7 11  1  0
  8 12  1  0
  8 16  1  0
  8 18  1  0
 10 17  1  0
 10 18  1  0
 11 15  1  0
 13 16  1  0
 14 15  1  0
 15 17  1  0
 17 19  1  0
M  END
$$$$
