
     RDKit          3D

 27 29  0  0  0  0  0  0  0  0999 V2000
   10.6541   57.4837   81.7759 O   0  0  0  0  0  0  0  0  0  0  0  0
   11.7231   55.5653   82.3550 C   0  0  0  0  0  0  0  0  0  0  0  0
   13.0483   54.8031   82.2654 C   0  0  0  0  0  0  0  0  0  0  0  0
   16.0571   59.8529   79.9614 O   0  0  0  0  0  0  0  0  0  0  0  0
    9.5362   60.9874   82.0895 C   0  0  0  0  0  0  0  0  0  0  0  0
   14.3551   56.8978   80.6233 C   0  0  0  0  0  0  0  0  0  0  0  0
   10.5750   61.0460   79.5602 C   0  0  0  0  0  0  0  0  0  0  0  0
   13.2487   59.0274   79.6720 N   0  0  0  0  0  0  0  0  0  0  0  0
   15.8683   56.6176   84.2614 N   0  0  0  0  0  0  0  0  0  0  0  0
    9.1805   62.0298   81.2661 N   0  0  0  0  0  0  0  0  0  0  0  0
   10.3890   60.0284   81.6607 C   0  0  0  0  0  0  0  0  0  0  0  0
   10.9193   60.0175   80.3911 C   0  0  0  0  0  0  0  0  0  0  0  0
   11.7299   56.7691   81.3722 C   0  0  0  0  0  0  0  0  0  0  0  0
   16.5227   57.6454   80.5553 O   0  0  0  0  0  0  0  0  0  0  0  0
   13.4895   60.2299   78.8507 C   0  0  0  0  0  0  0  0  0  0  0  0
   15.2313   56.2898   82.9178 C   0  0  0  0  0  0  0  0  0  0  0  0
   12.7543   53.4451   82.5291 O   0  0  0  0  0  0  0  0  0  0  0  0
   14.2049   55.2226   83.1483 C   0  0  0  0  0  0  0  0  0  0  0  0
   10.5137   54.9018   82.3086 O   0  0  0  0  0  0  0  0  0  0  0  0
   14.4504   58.1138   79.6618 C   0  0  0  0  0  0  0  0  0  0  0  0
    9.7017   62.0298   80.0028 C   0  0  0  0  0  0  0  0  0  0  0  0
   15.8046   58.6459   79.8833 C   0  0  0  0  0  0  0  0  0  0  0  0
   12.9255   56.7103   80.6676 O   0  0  0  0  0  0  0  0  0  0  0  0
   11.2799   58.1657   78.9846 O   0  0  0  0  0  0  0  0  0  0  0  0
   11.8209   58.9070   79.8701 C   0  0  0  0  0  0  0  0  0  0  0  0
   15.6037   56.8348   81.4729 C   0  0  0  0  0  0  0  0  0  0  0  0
   14.1093   54.8050   84.4586 O   0  0  0  0  0  0  0  0  0  0  0  0
  1 13  2  0
  2  3  1  0
  2 13  1  0
  2 19  1  0
  3 17  1  0
  3 18  1  0
  4 22  2  0
  5 10  1  0
  5 11  2  0
  6 20  1  0
  6 23  1  0
  6 26  1  0
  7 12  2  0
  7 21  1  0
  8 15  1  0
  8 20  1  0
  8 25  1  0
  9 16  1  0
 10 21  2  0
 11 12  1  0
 12 25  1  0
 13 23  1  0
 14 22  1  0
 14 26  1  0
 16 18  1  0
 16 26  1  0
 18 27  1  0
 20 22  1  0
 24 25  2  0
M  END
$$$$
