
     RDKit          3D

 21 23  0  0  0  0  0  0  0  0999 V2000
   13.6448   58.0242   79.7333 C   0  0  0  0  0  0  0  0  0  0  0  0
   15.1205   58.0302   79.8135 C   0  0  0  0  0  0  0  0  0  0  0  0
    9.3574   53.9179   81.0867 C   0  0  0  0  0  0  0  0  0  0  0  0
   10.7124   55.9332   81.2043 C   0  0  0  0  0  0  0  0  0  0  0  0
    9.5444   55.2977   81.0194 N   0  0  0  0  0  0  0  0  0  0  0  0
   11.6394   59.6474   81.0326 C   0  0  0  0  0  0  0  0  0  0  0  0
   13.1754   58.7640   78.6864 O   0  0  0  0  0  0  0  0  0  0  0  0
   12.9168   56.2507   81.4695 C   0  0  0  0  0  0  0  0  0  0  0  0
   15.7213   56.8312   80.5698 C   0  0  0  0  0  0  0  0  0  0  0  0
   15.3398   56.8220   82.1085 C   0  0  0  0  0  0  0  0  0  0  0  0
   15.6701   59.2616   80.3036 O   0  0  0  0  0  0  0  0  0  0  0  0
    9.1569   57.4336   80.6320 N   0  0  0  0  0  0  0  0  0  0  0  0
   11.8657   55.4297   81.5684 N   0  0  0  0  0  0  0  0  0  0  0  0
   11.5826   58.1559   80.9452 C   0  0  0  0  0  0  0  0  0  0  0  0
   11.4975   60.3894   80.0077 O   0  0  0  0  0  0  0  0  0  0  0  0
   15.8166   56.7105   83.6759 C   0  0  0  0  0  0  0  0  0  0  0  0
   12.8025   57.4546   80.8145 C   0  0  0  0  0  0  0  0  0  0  0  0
    8.5923   56.2235   80.6991 C   0  0  0  0  0  0  0  0  0  0  0  0
   14.2041   55.7847   82.1591 C   0  0  0  0  0  0  0  0  0  0  0  0
   10.4774   57.2565   80.9378 C   0  0  0  0  0  0  0  0  0  0  0  0
   12.0236   60.2000   82.1017 O   0  0  0  0  0  0  0  0  0  0  0  0
  1  2  1  0
  1  7  1  0
  1 17  1  0
  2  9  1  0
  2 11  1  0
  3  5  1  0
  4  5  1  0
  4 13  2  0
  4 20  1  0
  5 18  1  0
  6 14  1  0
  6 15  2  0
  6 21  1  0
  8 13  1  0
  8 17  1  0
  8 19  1  0
  9 10  1  0
 10 16  1  0
 10 19  1  0
 12 18  1  0
 12 20  1  0
 14 17  1  0
 14 20  1  0
M  END
$$$$
