
     RDKit          3D

 39 43  0  0  0  0  0  0  0  0999 V2000
   38.6871   47.1188   37.2954 C   0  0  0  0  0  0  0  0  0  0  0  0
   35.2222   49.9982   43.4260 C   0  0  0  0  0  0  0  0  0  0  0  0
   38.2122   47.5569   43.0544 C   0  0  0  0  0  0  0  0  0  0  0  0
   36.9017   49.8371   43.5810 N   0  0  0  0  0  0  0  0  0  0  0  0
   38.9973   48.3149   40.7544 C   0  0  0  0  0  0  0  0  0  0  0  0
   34.3488   50.8569   42.4906 C   0  0  0  0  0  0  0  0  0  0  0  0
   38.1819   54.9901   41.9244 C   0  0  0  0  0  0  0  0  0  0  0  0
   38.3247   46.1216   36.2905 C   0  0  0  0  0  0  0  0  0  0  0  0
   34.7583   54.8374   45.3861 C   0  0  0  0  0  0  0  0  0  0  0  0
   37.8838   45.2608   42.7259 C   0  0  0  0  0  0  0  0  0  0  0  0
   38.5956   45.8027   41.5651 C   0  0  0  0  0  0  0  0  0  0  0  0
   36.0321   54.4843   44.7227 C   0  0  0  0  0  0  0  0  0  0  0  0
   33.8909   55.8006   43.3235 C   0  0  0  0  0  0  0  0  0  0  0  0
   37.1373   54.2772   42.3601 C   0  0  0  0  0  0  0  0  0  0  0  0
   36.0224   52.2811   41.4587 N   0  0  0  0  0  0  0  0  0  0  0  0
   36.0690   54.5956   43.2937 N   0  0  0  0  0  0  0  0  0  0  0  0
   39.7202   47.8548   39.4809 C   0  0  0  0  0  0  0  0  0  0  0  0
   35.0363   51.4561   41.3643 C   0  0  0  0  0  0  0  0  0  0  0  0
   33.7342   55.5997   44.7274 N   0  0  0  0  0  0  0  0  0  0  0  0
   39.1734   55.8250   41.8578 C   0  0  0  0  0  0  0  0  0  0  0  0
   39.5932   56.7639   42.8440 C   0  0  0  0  0  0  0  0  0  0  0  0
   32.6849   56.2524   45.3523 C   0  0  0  0  0  0  0  0  0  0  0  0
   33.2312   56.7730   42.6124 C   0  0  0  0  0  0  0  0  0  0  0  0
   34.8900   55.0686   42.7098 C   0  0  0  0  0  0  0  0  0  0  0  0
   37.2282   54.9243   45.4612 C   0  0  0  0  0  0  0  0  0  0  0  0
   31.7296   57.1423   45.0294 C   0  0  0  0  0  0  0  0  0  0  0  0
   37.9753   48.8231   43.6581 C   0  0  0  0  0  0  0  0  0  0  0  0
   35.3628   51.0446   44.7298 C   0  0  0  0  0  0  0  0  0  0  0  0
   31.4865   57.8972   43.8325 C   0  0  0  0  0  0  0  0  0  0  0  0
   36.8442   53.0946   41.6993 C   0  0  0  0  0  0  0  0  0  0  0  0
   38.1951   50.9064   45.4762 C   0  0  0  0  0  0  0  0  0  0  0  0
   36.8436   50.6779   44.8958 C   0  0  0  0  0  0  0  0  0  0  0  0
   38.7006   47.2724   41.7553 C   0  0  0  0  0  0  0  0  0  0  0  0
   38.1579   55.9977   44.8608 C   0  0  0  0  0  0  0  0  0  0  0  0
   39.0963   56.8386   44.0861 C   0  0  0  0  0  0  0  0  0  0  0  0
   39.0679   46.6511   38.7039 C   0  0  0  0  0  0  0  0  0  0  0  0
   34.6077   54.0092   46.5192 O   0  0  0  0  0  0  0  0  0  0  0  0
   32.2640   57.6683   42.7058 C   0  0  0  0  0  0  0  0  0  0  0  0
   37.8005   46.3317   43.7560 C   0  0  0  0  0  0  0  0  0  0  0  0
  1  8  1  0
  1 36  1  0
  2  4  1  0
  2  6  1  0
  2 28  1  0
  3 27  1  0
  3 33  2  0
  3 39  1  0
  4 27  1  0
  4 32  1  0
  5 17  1  0
  5 33  1  0
  6 18  1  0
  7 14  2  0
  7 20  2  0
  9 12  1  0
  9 19  1  0
  9 37  2  0
 10 11  1  0
 10 39  1  0
 11 33  1  0
 12 16  1  0
 12 25  1  0
 13 19  1  0
 13 23  1  0
 13 24  1  0
 14 16  1  0
 14 30  1  0
 15 18  1  0
 15 30  1  0
 16 24  1  0
 17 36  1  0
 19 22  1  0
 20 21  1  0
 21 35  1  0
 22 26  2  0
 23 38  2  0
 25 34  2  0
 26 29  1  0
 28 32  1  0
 29 38  1  0
 31 32  1  0
 34 35  2  0
M  END
$$$$
