
     RDKit          3D

 29 30  0  0  0  0  0  0  0  0999 V2000
   32.1598   56.2885   46.4187 O   0  0  0  0  0  0  0  0  0  0  0  0
   34.4041   51.9632   40.7249 O   0  0  0  0  0  0  0  0  0  0  0  0
   35.5080   52.7443   46.3291 F   0  0  0  0  0  0  0  0  0  0  0  0
   31.2638   58.1991   45.1741 C   0  0  0  0  0  0  0  0  0  0  0  0
   33.1678   57.3957   43.0557 C   0  0  0  0  0  0  0  0  0  0  0  0
   35.1340   52.7176   41.5044 N   0  0  0  0  0  0  0  0  0  0  0  0
   37.7064   49.2804   43.7696 C   0  0  0  0  0  0  0  0  0  0  0  0
   32.2526   58.5938   42.9626 C   0  0  0  0  0  0  0  0  0  0  0  0
   38.7625   47.9260   41.8371 C   0  0  0  0  0  0  0  0  0  0  0  0
   30.9512   58.2595   43.6688 C   0  0  0  0  0  0  0  0  0  0  0  0
   35.7872   52.1722   45.0649 C   0  0  0  0  0  0  0  0  0  0  0  0
   36.5042   51.0253   45.0464 C   0  0  0  0  0  0  0  0  0  0  0  0
   36.3518   51.0424   42.6651 C   0  0  0  0  0  0  0  0  0  0  0  0
   34.5260   54.1057   44.0052 C   0  0  0  0  0  0  0  0  0  0  0  0
   38.5625   46.9641   42.8208 N   0  0  0  0  0  0  0  0  0  0  0  0
   33.0237   56.6137   44.3273 N   0  0  0  0  0  0  0  0  0  0  0  0
   36.8268   50.4620   43.8174 C   0  0  0  0  0  0  0  0  0  0  0  0
   35.2854   53.9557   41.2335 O   0  0  0  0  0  0  0  0  0  0  0  0
   35.3085   52.8240   43.8880 C   0  0  0  0  0  0  0  0  0  0  0  0
   32.2307   57.0568   45.4342 C   0  0  0  0  0  0  0  0  0  0  0  0
   39.2957   46.1691   40.1148 C   0  0  0  0  0  0  0  0  0  0  0  0
   33.6159   55.2945   44.4122 C   0  0  0  0  0  0  0  0  0  0  0  0
   38.4842   49.3212   42.4221 C   0  0  0  0  0  0  0  0  0  0  0  0
   39.0559   47.2177   40.5922 C   0  0  0  0  0  0  0  0  0  0  0  0
   38.8550   46.3542   37.7940 C   0  0  0  0  0  0  0  0  0  0  0  0
   39.2288   45.6021   38.9040 N   0  0  0  0  0  0  0  0  0  0  0  0
   38.8061   47.2954   37.9470 C   0  0  0  0  0  0  0  0  0  0  0  0
   35.6140   52.1625   42.6809 C   0  0  0  0  0  0  0  0  0  0  0  0
   35.0922   55.3655   44.5070 C   0  0  0  0  0  0  0  0  0  0  0  0
  1 20  2  0
  2  6  1  0
  3 11  1  0
  4 10  1  0
  4 20  1  0
  5  8  1  0
  5 16  1  0
  6 18  1  0
  6 28  1  0
  7 17  1  0
  7 23  1  0
  8 10  1  0
  9 15  1  0
  9 23  1  0
  9 24  2  3
 11 12  2  0
 11 19  1  0
 12 17  1  0
 13 17  1  0
 13 28  2  0
 14 19  1  0
 14 29  1  0
 16 20  1  0
 16 22  1  0
 19 28  1  0
 21 24  1  0
 21 26  2  3
 22 29  1  0
 25 26  1  0
 25 27  1  0
M  END
$$$$
