
     RDKit          3D

 38 38  0  0  0  0  0  0  0  0999 V2000
   35.3811   53.6740   41.0798 O   0  0  0  0  0  0  0  0  0  0  0  0
   39.1085   46.9459   39.7228 C   0  0  0  0  0  0  0  0  0  0  0  0
   39.4100   56.5553   42.4164 C   0  0  0  0  0  0  0  0  0  0  0  0
   38.0226   49.7868   43.9614 C   0  0  0  0  0  0  0  0  0  0  0  0
   39.0341   46.6611   41.1916 C   0  0  0  0  0  0  0  0  0  0  0  0
   33.7989   52.7843   46.1256 C   0  0  0  0  0  0  0  0  0  0  0  0
   38.4827   50.1714   42.7082 C   0  0  0  0  0  0  0  0  0  0  0  0
   38.1752   46.8592   38.3653 C   0  0  0  0  0  0  0  0  0  0  0  0
   38.9695   55.4307   41.7483 C   0  0  0  0  0  0  0  0  0  0  0  0
   35.3667   54.0625   44.5073 C   0  0  0  0  0  0  0  0  0  0  0  0
   37.9892   54.5350   42.0303 N   0  0  0  0  0  0  0  0  0  0  0  0
   33.0513   52.1852   40.9876 F   0  0  0  0  0  0  0  0  0  0  0  0
   34.6696   52.1243   42.7200 N   0  0  0  0  0  0  0  0  0  0  0  0
   35.4070   55.3748   45.0984 C   0  0  0  0  0  0  0  0  0  0  0  0
   34.8072   50.2004   44.6142 C   0  0  0  0  0  0  0  0  0  0  0  0
   37.7747   48.5031   44.2585 N   0  0  0  0  0  0  0  0  0  0  0  0
   34.7645   52.8696   44.9772 N   0  0  0  0  0  0  0  0  0  0  0  0
   35.4128   53.1842   42.2983 C   0  0  0  0  0  0  0  0  0  0  0  0
   32.6320   55.6540   46.7102 O   0  0  0  0  0  0  0  0  0  0  0  0
   39.6786   55.2877   40.5525 O   0  0  0  0  0  0  0  0  0  0  0  0
   37.5253   55.6061   44.1275 C   0  0  0  0  0  0  0  0  0  0  0  0
   36.0283   53.9325   43.3422 C   0  0  0  0  0  0  0  0  0  0  0  0
   40.1742   48.0171   39.3251 C   0  0  0  0  0  0  0  0  0  0  0  0
   34.0020   51.2383   41.8928 O   0  0  0  0  0  0  0  0  0  0  0  0
   40.4362   57.1934   41.7098 C   0  0  0  0  0  0  0  0  0  0  0  0
   41.6831   56.6029   39.5567 C   0  0  0  0  0  0  0  0  0  0  0  0
   33.0159   56.2763   45.7291 C   0  0  0  0  0  0  0  0  0  0  0  0
   38.1750   46.0876   43.8853 C   0  0  0  0  0  0  0  0  0  0  0  0
   38.1585   47.4806   43.4033 C   0  0  0  0  0  0  0  0  0  0  0  0
   37.1850   54.6899   43.1743 C   0  0  0  0  0  0  0  0  0  0  0  0
   36.6706   56.0042   45.0850 C   0  0  0  0  0  0  0  0  0  0  0  0
   34.3263   56.3486   45.4193 C   0  0  0  0  0  0  0  0  0  0  0  0
   38.7429   49.1094   41.8189 C   0  0  0  0  0  0  0  0  0  0  0  0
   34.6861   51.8020   44.0466 C   0  0  0  0  0  0  0  0  0  0  0  0
   31.9993   56.8524   44.7609 C   0  0  0  0  0  0  0  0  0  0  0  0
   40.6589   56.4052   40.5469 C   0  0  0  0  0  0  0  0  0  0  0  0
   38.6478   47.7960   42.1119 C   0  0  0  0  0  0  0  0  0  0  0  0
   33.5377   51.6180   39.6903 F   0  0  0  0  0  0  0  0  0  0  0  0
  1 18  2  0
  2  5  1  0
  2  8  1  0
  2 23  1  0
  3  9  1  0
  3 25  1  0
  4  7  1  0
  4 16  2  0
  5 37  1  0
  6 17  1  0
  7 33  1  0
  9 11  2  3
  9 20  1  0
 10 14  1  0
 10 17  1  0
 10 22  1  0
 11 30  1  0
 13 18  1  0
 13 24  1  0
 13 34  1  0
 14 31  1  0
 14 32  1  0
 15 34  1  0
 16 29  1  0
 17 34  1  0
 18 22  1  0
 19 27  2  0
 20 36  1  0
 21 30  1  0
 21 31  2  0
 22 30  2  0
 25 36  1  0
 26 36  1  0
 27 32  1  0
 27 35  1  0
 28 29  1  0
 29 37  1  0
 33 37  2  0
M  END
$$$$
