
     RDKit          3D

 18 18  0  0  0  0  0  0  0  0999 V2000
   23.7229   19.8237   22.4801 O   0  0  0  0  0  0  0  0  0  0  0  0
   23.2593   25.2304   18.0013 C   0  0  0  0  0  0  0  0  0  0  0  0
   20.3383   22.8874   20.7679 C   0  0  0  0  0  0  0  0  0  0  0  0
   24.3405   23.2568   16.8923 C   0  0  0  0  0  0  0  0  0  0  0  0
   19.5851   23.5140   21.7218 N   0  0  0  0  0  0  0  0  0  0  0  0
   23.9843   20.9805   21.7866 C   0  0  0  0  0  0  0  0  0  0  0  0
   21.9887   23.1944   17.7904 C   0  0  0  0  0  0  0  0  0  0  0  0
   19.6358   22.0364   19.8869 C   0  0  0  0  0  0  0  0  0  0  0  0
   22.6018   23.1966   19.2417 C   0  0  0  0  0  0  0  0  0  0  0  0
   23.0851   21.0293   20.5611 C   0  0  0  0  0  0  0  0  0  0  0  0
   23.4198   24.5003   19.3057 C   0  0  0  0  0  0  0  0  0  0  0  0
   24.5891   24.5682   20.1363 C   0  0  0  0  0  0  0  0  0  0  0  0
   23.4860   21.9411   19.4458 C   0  0  0  0  0  0  0  0  0  0  0  0
   22.9796   24.1113   16.9225 C   0  0  0  0  0  0  0  0  0  0  0  0
   22.5810   18.5825   19.7891 O   0  0  0  0  0  0  0  0  0  0  0  0
   21.7901   18.9668   20.9020 C   0  0  0  0  0  0  0  0  0  0  0  0
   21.7758   20.4413   20.9491 C   0  0  0  0  0  0  0  0  0  0  0  0
   21.6377   23.2911   20.4042 C   0  0  0  0  0  0  0  0  0  0  0  0
  1  6  1  0
  2 11  1  0
  2 14  1  0
  3  5  1  0
  3  8  1  0
  3 18  1  0
  4 14  1  0
  6 10  1  0
  7  9  1  0
  7 14  1  0
  9 11  1  0
  9 13  1  0
  9 18  1  0
 10 13  1  0
 10 17  1  0
 11 12  1  0
 15 16  1  0
 16 17  1  0
M  END
$$$$
