
     RDKit          3D

 23 24  0  0  0  0  0  0  0  0999 V2000
   23.3388   24.0080   18.4573 C   0  0  0  0  0  0  0  0  0  0  0  0
   22.8544   21.0197   20.2115 C   0  0  0  0  0  0  0  0  0  0  0  0
   21.8539   23.2157   20.4952 C   0  0  0  0  0  0  0  0  0  0  0  0
   22.0291   17.9974   20.6527 C   0  0  0  0  0  0  0  0  0  0  0  0
   21.4504   23.8840   23.0965 C   0  0  0  0  0  0  0  0  0  0  0  0
   24.1408   24.7805   17.4766 C   0  0  0  0  0  0  0  0  0  0  0  0
   24.0355   26.3033   17.6405 C   0  0  0  0  0  0  0  0  0  0  0  0
   23.5811   19.8599   20.6688 C   0  0  0  0  0  0  0  0  0  0  0  0
   23.2406   18.6705   19.9664 C   0  0  0  0  0  0  0  0  0  0  0  0
   19.6885   23.5474   21.3051 C   0  0  0  0  0  0  0  0  0  0  0  0
   21.5802   21.0050   19.3844 C   0  0  0  0  0  0  0  0  0  0  0  0
   23.9111   19.7082   21.9837 O   0  0  0  0  0  0  0  0  0  0  0  0
   25.7477   22.9162   16.8004 C   0  0  0  0  0  0  0  0  0  0  0  0
   23.1503   22.4451   20.6060 C   0  0  0  0  0  0  0  0  0  0  0  0
   19.5330   22.6631   20.0878 C   0  0  0  0  0  0  0  0  0  0  0  0
   25.5799   24.3539   17.3094 C   0  0  0  0  0  0  0  0  0  0  0  0
   21.0612   23.5367   21.7509 C   0  0  0  0  0  0  0  0  0  0  0  0
   18.8503   24.4150   21.2986 O   0  0  0  0  0  0  0  0  0  0  0  0
   24.5185   22.0284   16.7143 C   0  0  0  0  0  0  0  0  0  0  0  0
   23.8249   22.6138   21.8325 O   0  0  0  0  0  0  0  0  0  0  0  0
   24.0437   23.0278   19.4571 C   0  0  0  0  0  0  0  0  0  0  0  0
   20.9160   22.4027   19.5483 C   0  0  0  0  0  0  0  0  0  0  0  0
   20.4779   23.6505   24.0925 N   0  0  0  0  0  0  0  0  0  0  0  0
  1  6  1  0
  1 21  2  3
  2  8  1  0
  2 11  1  0
  2 14  1  0
  3 14  1  0
  3 17  1  0
  3 22  1  0
  4  9  1  0
  5 17  1  0
  5 23  1  0
  6  7  1  0
  6 16  1  0
  8  9  1  0
  8 12  1  0
 10 15  1  0
 10 17  1  0
 10 18  2  0
 11 22  1  0
 13 16  1  0
 13 19  1  0
 14 20  1  0
 14 21  1  0
 15 22  1  0
M  END
$$$$
