
     RDKit          3D

 31 33  0  0  0  0  0  0  0  0999 V2000
   22.2946   19.7790   21.7144 C   0  0  0  0  0  0  0  0  0  0  0  0
   19.3101   22.6057   19.9327 O   0  0  0  0  0  0  0  0  0  0  0  0
   19.4867   23.4350   20.9653 C   0  0  0  0  0  0  0  0  0  0  0  0
   23.9741   22.9713   18.4457 C   0  0  0  0  0  0  0  0  0  0  0  0
   21.6912   23.6504   22.0470 C   0  0  0  0  0  0  0  0  0  0  0  0
   21.4692   18.1631   20.2720 O   0  0  0  0  0  0  0  0  0  0  0  0
   25.8327   24.5495   18.6469 O   0  0  0  0  0  0  0  0  0  0  0  0
   22.7669   27.3345   22.0384 C   0  0  0  0  0  0  0  0  0  0  0  0
   21.3550   22.7812   15.9572 O   0  0  0  0  0  0  0  0  0  0  0  0
   21.7440   24.9771   21.8019 N   0  0  0  0  0  0  0  0  0  0  0  0
   23.3954   21.7792   21.9667 N   0  0  0  0  0  0  0  0  0  0  0  0
   22.4806   19.1418   20.3085 C   0  0  0  0  0  0  0  0  0  0  0  0
   23.1797   26.2796   20.2461 C   0  0  0  0  0  0  0  0  0  0  0  0
   22.7365   22.5880   17.8512 C   0  0  0  0  0  0  0  0  0  0  0  0
   26.5993   25.5251   17.8416 C   0  0  0  0  0  0  0  0  0  0  0  0
   24.5483   24.2372   18.1277 C   0  0  0  0  0  0  0  0  0  0  0  0
   23.7999   25.1367   17.2893 C   0  0  0  0  0  0  0  0  0  0  0  0
   22.6042   24.6955   16.6487 C   0  0  0  0  0  0  0  0  0  0  0  0
   23.2628   27.7875   20.5528 C   0  0  0  0  0  0  0  0  0  0  0  0
   24.0829   23.8386   22.7212 N   0  0  0  0  0  0  0  0  0  0  0  0
   23.0252   23.0303   22.3114 C   0  0  0  0  0  0  0  0  0  0  0  0
   22.9174   25.7656   21.7998 C   0  0  0  0  0  0  0  0  0  0  0  0
   22.1830   23.3911   16.8305 C   0  0  0  0  0  0  0  0  0  0  0  0
   23.6205   20.4357   22.1545 C   0  0  0  0  0  0  0  0  0  0  0  0
   23.9364   18.6279   19.8715 C   0  0  0  0  0  0  0  0  0  0  0  0
   20.4193   23.0599   21.8518 N   0  0  0  0  0  0  0  0  0  0  0  0
   21.9725   21.4000   18.2806 C   0  0  0  0  0  0  0  0  0  0  0  0
   21.8587   25.5246   15.9049 O   0  0  0  0  0  0  0  0  0  0  0  0
   22.0745   20.2310   19.2423 C   0  0  0  0  0  0  0  0  0  0  0  0
   18.7179   24.3996   21.1978 O   0  0  0  0  0  0  0  0  0  0  0  0
   24.0235   25.1644   22.4874 C   0  0  0  0  0  0  0  0  0  0  0  0
  1 12  1  0
  1 24  1  0
  2  3  2  0
  3 26  1  0
  3 30  1  0
  4 14  2  0
  4 16  1  0
  5 10  2  0
  5 21  1  0
  5 26  1  0
  6 12  1  0
  7 15  1  0
  7 16  1  0
  8 19  1  0
  8 22  1  0
  9 23  1  0
 10 22  1  0
 11 21  2  3
 11 24  1  0
 12 25  1  0
 12 29  1  0
 13 19  1  0
 13 22  1  0
 14 23  1  0
 14 27  1  0
 16 17  1  0
 17 18  2  0
 18 23  1  0
 18 28  1  0
 20 21  1  0
 20 31  2  0
 22 31  1  0
 27 29  1  0
M  END
$$$$
