
     RDKit          3D

 12 11  0  0  0  0  0  0  0  0999 V2000
   24.0610   20.8212   19.7037 C   0  0  0  0  0  0  0  0  0  0  0  0
   20.1188   23.9201   21.1508 C   0  0  0  0  0  0  0  0  0  0  0  0
   20.4085   22.4899   20.8770 C   0  0  0  0  0  0  0  0  0  0  0  0
   22.7437   18.8994   20.8910 O   0  0  0  0  0  0  0  0  0  0  0  0
   22.8290   20.3047   20.6052 C   0  0  0  0  0  0  0  0  0  0  0  0
   23.6460   21.5464   18.3462 C   0  0  0  0  0  0  0  0  0  0  0  0
   21.0850   24.7382   21.2723 O   0  0  0  0  0  0  0  0  0  0  0  0
   23.1186   20.8677   22.1060 C   0  0  0  0  0  0  0  0  0  0  0  0
   18.9051   24.3012   21.2609 O   0  0  0  0  0  0  0  0  0  0  0  0
   24.5133   22.3323   17.1890 S   0  0  0  0  0  0  0  0  0  0  0  0
   21.0436   22.1022   19.5195 C   0  0  0  0  0  0  0  0  0  0  0  0
   21.6008   20.5972   19.5799 C   0  0  0  0  0  0  0  0  0  0  0  0
  1  5  1  0
  1  6  2  3
  2  3  1  0
  2  7  2  0
  2  9  1  0
  3 11  1  0
  4  5  1  0
  5  8  1  0
  5 12  1  0
  6 10  1  0
 11 12  1  0
M  END
$$$$
