
     RDKit          3D

 28 30  0  0  0  0  0  0  0  0999 V2000
   24.1889   19.4820   21.6296 C   0  0  0  0  0  0  0  0  0  0  0  0
   24.0919   24.2187   19.3116 C   0  0  0  0  0  0  0  0  0  0  0  0
   25.5420   19.9430   20.9806 C   0  0  0  0  0  0  0  0  0  0  0  0
   22.6903   24.8771   16.6004 C   0  0  0  0  0  0  0  0  0  0  0  0
   25.6153   21.3729   20.4967 C   0  0  0  0  0  0  0  0  0  0  0  0
   23.6260   25.5444   18.8503 C   0  0  0  0  0  0  0  0  0  0  0  0
   22.8389   26.7564   20.7383 O   0  0  0  0  0  0  0  0  0  0  0  0
   23.7839   23.1432   18.5538 C   0  0  0  0  0  0  0  0  0  0  0  0
   20.5024   24.3310   22.0829 O   0  0  0  0  0  0  0  0  0  0  0  0
   24.2193   27.8012   19.3007 N   0  0  0  0  0  0  0  0  0  0  0  0
   24.8824   23.8626   20.6205 C   0  0  0  0  0  0  0  0  0  0  0  0
   21.0448   23.1669   21.6344 C   0  0  0  0  0  0  0  0  0  0  0  0
   23.0386   19.4677   20.5205 C   0  0  0  0  0  0  0  0  0  0  0  0
   20.9298   21.0424   20.4446 C   0  0  0  0  0  0  0  0  0  0  0  0
   22.3859   22.9337   21.9127 C   0  0  0  0  0  0  0  0  0  0  0  0
   23.6125   26.7228   19.7454 C   0  0  0  0  0  0  0  0  0  0  0  0
   22.2974   20.8555   20.6754 N   0  0  0  0  0  0  0  0  0  0  0  0
   22.1355   18.2462   20.4987 O   0  0  0  0  0  0  0  0  0  0  0  0
   23.1497   25.6737   17.5578 C   0  0  0  0  0  0  0  0  0  0  0  0
   23.1354   23.6705   23.0851 C   0  0  0  0  0  0  0  0  0  0  0  0
   19.2458   22.8035   20.1158 O   0  0  0  0  0  0  0  0  0  0  0  0
   24.5482   22.3169   20.9521 C   0  0  0  0  0  0  0  0  0  0  0  0
   20.3404   22.3068   20.7973 C   0  0  0  0  0  0  0  0  0  0  0  0
   22.5688   23.4992   16.5228 C   0  0  0  0  0  0  0  0  0  0  0  0
   20.1993   20.1498   19.8905 O   0  0  0  0  0  0  0  0  0  0  0  0
   23.1630   22.6710   17.4684 C   0  0  0  0  0  0  0  0  0  0  0  0
   23.0717   21.9683   21.1609 C   0  0  0  0  0  0  0  0  0  0  0  0
   23.7418   19.3821   19.3038 O   0  0  0  0  0  0  0  0  0  0  0  0
  1  3  1  0
  1 13  1  0
  2  6  2  0
  2  8  1  0
  2 11  1  0
  3  5  2  0
  4 19  2  0
  4 24  1  0
  5 22  1  0
  6 16  1  0
  6 19  1  0
  7 16  2  0
  8 26  2  0
  9 12  1  0
 10 16  1  0
 11 22  1  0
 12 15  1  0
 12 23  1  0
 13 17  1  0
 13 18  1  0
 13 28  1  0
 14 17  1  0
 14 23  1  0
 14 25  2  0
 15 20  1  0
 15 27  1  0
 17 27  1  0
 21 23  1  0
 22 27  1  0
 24 26  1  0
M  END
$$$$
