
     RDKit          3D

 32 35  0  0  0  0  0  0  0  0999 V2000
   21.4614   23.1272   20.3123 C   0  0  0  0  0  0  0  0  0  0  0  0
   25.4910   23.1753   22.6964 C   0  0  0  0  0  0  0  0  0  0  0  0
   22.3589   17.5566   20.9955 O   0  0  0  0  0  0  0  0  0  0  0  0
   21.8494   21.8208   19.8423 C   0  0  0  0  0  0  0  0  0  0  0  0
   23.7580   24.0534   17.1147 C   0  0  0  0  0  0  0  0  0  0  0  0
   24.6791   21.9233   22.4738 C   0  0  0  0  0  0  0  0  0  0  0  0
   23.0994   21.3767   20.4094 C   0  0  0  0  0  0  0  0  0  0  0  0
   19.6610   24.2907   21.2216 C   0  0  0  0  0  0  0  0  0  0  0  0
   23.7596   23.5884   21.1023 C   0  0  0  0  0  0  0  0  0  0  0  0
   25.4474   26.0014   19.4914 C   0  0  0  0  0  0  0  0  0  0  0  0
   23.2460   19.9966   20.0941 O   0  0  0  0  0  0  0  0  0  0  0  0
   26.1951   25.0685   21.5393 O   0  0  0  0  0  0  0  0  0  0  0  0
   24.6018   26.8354   20.2082 C   0  0  0  0  0  0  0  0  0  0  0  0
   21.7804   21.8066   18.2929 C   0  0  0  0  0  0  0  0  0  0  0  0
   22.4761   24.0912   20.6042 C   0  0  0  0  0  0  0  0  0  0  0  0
   21.4730   18.4135   20.8028 C   0  0  0  0  0  0  0  0  0  0  0  0
   24.9552   24.2066   21.6986 N   0  0  0  0  0  0  0  0  0  0  0  0
   20.0397   23.2510   20.5168 C   0  0  0  0  0  0  0  0  0  0  0  0
   23.8900   22.2234   21.2160 C   0  0  0  0  0  0  0  0  0  0  0  0
   25.2107   23.7021   17.2573 O   0  0  0  0  0  0  0  0  0  0  0  0
   26.0963   24.9092   17.3366 C   0  0  0  0  0  0  0  0  0  0  0  0
   20.2308   18.1489   20.9281 O   0  0  0  0  0  0  0  0  0  0  0  0
   26.4813   25.0092   20.0598 C   0  0  0  0  0  0  0  0  0  0  0  0
   24.3473   28.2671   18.2807 C   0  0  0  0  0  0  0  0  0  0  0  0
   18.4366   24.5831   21.1002 O   0  0  0  0  0  0  0  0  0  0  0  0
   25.5572   26.1384   18.0828 C   0  0  0  0  0  0  0  0  0  0  0  0
   20.8996   20.6459   19.8597 C   0  0  0  0  0  0  0  0  0  0  0  0
   21.8514   19.4444   19.7767 C   0  0  0  0  0  0  0  0  0  0  0  0
   24.0159   27.9477   19.6353 C   0  0  0  0  0  0  0  0  0  0  0  0
   23.4320   21.7616   23.4653 C   0  0  0  0  0  0  0  0  0  0  0  0
   25.1173   27.3604   17.5315 C   0  0  0  0  0  0  0  0  0  0  0  0
   20.5666   25.0865   21.6993 O   0  0  0  0  0  0  0  0  0  0  0  0
  1  4  1  0
  1 15  1  0
  1 18  2  3
  2  6  1  0
  2 17  1  0
  3 16  2  0
  4  7  1  0
  4 14  1  0
  4 27  1  0
  5 20  1  0
  6 19  1  0
  6 30  1  0
  7 11  1  0
  7 19  1  0
  8 18  1  0
  8 25  2  0
  8 32  1  0
  9 15  2  0
  9 17  1  0
  9 19  1  0
 10 13  1  0
 10 23  1  0
 10 26  1  0
 11 28  1  0
 12 17  1  0
 12 23  1  0
 13 29  2  0
 16 22  1  0
 16 28  1  0
 20 21  1  0
 21 26  1  0
 24 29  1  0
 24 31  2  0
 26 31  1  0
 27 28  1  0
M  END
$$$$
