
     RDKit          3D

 25 26  0  0  0  0  0  0  0  0999 V2000
  104.1883    5.9336  -91.1993 C   0  0  0  0  0  0  0  0  0  0  0  0
   98.6051    7.8366  -90.0708 C   0  0  0  0  0  0  0  0  0  0  0  0
  105.3532    4.0940  -92.3647 O   0  0  0  0  0  0  0  0  0  0  0  0
   99.0021    9.9877  -91.1538 C   0  0  0  0  0  0  0  0  0  0  0  0
  100.1273    3.7088  -92.8148 C   0  0  0  0  0  0  0  0  0  0  0  0
  102.1965    8.0061  -91.2044 C   0  0  0  0  0  0  0  0  0  0  0  0
  100.3479    9.6622  -91.3102 C   0  0  0  0  0  0  0  0  0  0  0  0
  100.8048    8.3957  -90.9405 C   0  0  0  0  0  0  0  0  0  0  0  0
   99.8635    4.9726  -89.7464 C   0  0  0  0  0  0  0  0  0  0  0  0
  105.0245    7.1672  -90.6467 C   0  0  0  0  0  0  0  0  0  0  0  0
  100.7919    5.1316  -90.7388 C   0  0  0  0  0  0  0  0  0  0  0  0
   99.2604    3.1995  -91.7960 O   0  0  0  0  0  0  0  0  0  0  0  0
  102.6792    6.6206  -91.2951 N   0  0  0  0  0  0  0  0  0  0  0  0
  100.5096    6.1633  -89.7686 C   0  0  0  0  0  0  0  0  0  0  0  0
  101.8003    5.4470  -91.8805 C   0  0  0  0  0  0  0  0  0  0  0  0
  101.4988    4.2864  -93.0887 C   0  0  0  0  0  0  0  0  0  0  0  0
   99.9519    7.4698  -90.2627 C   0  0  0  0  0  0  0  0  0  0  0  0
   98.1267    9.0854  -90.5316 C   0  0  0  0  0  0  0  0  0  0  0  0
   99.7225    3.9193  -89.0879 O   0  0  0  0  0  0  0  0  0  0  0  0
  102.1732    3.0277  -93.8329 C   0  0  0  0  0  0  0  0  0  0  0  0
  105.3362    4.8314  -91.3763 C   0  0  0  0  0  0  0  0  0  0  0  0
  106.2262    4.7588  -90.4915 O   0  0  0  0  0  0  0  0  0  0  0  0
  103.0374    8.9288  -91.2724 O   0  0  0  0  0  0  0  0  0  0  0  0
  100.9103    2.2914  -94.4128 C   0  0  0  0  0  0  0  0  0  0  0  0
  101.3735    5.2203  -94.2295 O   0  0  0  0  0  0  0  0  0  0  0  0
  1 10  1  0
  1 13  1  0
  1 21  1  0
  2 17  2  0
  2 18  1  0
  3 21  2  0
  4  7  1  0
  4 18  2  0
  5 12  1  0
  5 16  1  0
  6  8  1  0
  6 13  1  0
  6 23  2  0
  7  8  2  0
  8 17  1  0
  9 11  1  0
  9 14  1  0
  9 19  1  0
 11 15  1  0
 13 15  1  0
 14 17  1  0
 15 16  1  0
 16 20  1  0
 16 25  1  0
 20 24  1  0
 21 22  1  0
M  END
$$$$
