
     RDKit          3D

 65 72  0  0  0  0  0  0  0  0999 V2000
   98.6922    4.6563  -88.3472 C   0  0  0  0  0  0  0  0  0  0  0  0
   99.5536    4.9462  -92.6277 C   0  0  0  0  0  0  0  0  0  0  0  0
  103.7080    5.7077  -88.8811 C   0  0  0  0  0  0  0  0  0  0  0  0
   99.5914   10.3753  -91.1972 C   0  0  0  0  0  0  0  0  0  0  0  0
   97.1819    4.9380  -91.6281 C   0  0  0  0  0  0  0  0  0  0  0  0
   97.9246    4.2866  -87.0872 C   0  0  0  0  0  0  0  0  0  0  0  0
   98.1995    2.8505  -86.7125 C   0  0  0  0  0  0  0  0  0  0  0  0
   99.0887    4.5157  -84.9424 C   0  0  0  0  0  0  0  0  0  0  0  0
  104.4888    3.7447  -91.8279 C   0  0  0  0  0  0  0  0  0  0  0  0
  102.0231    2.6103  -94.3833 C   0  0  0  0  0  0  0  0  0  0  0  0
  102.9774    4.9940  -86.4646 O   0  0  0  0  0  0  0  0  0  0  0  0
   97.9754    4.0500  -89.5266 C   0  0  0  0  0  0  0  0  0  0  0  0
   97.4886    9.8057  -90.3572 C   0  0  0  0  0  0  0  0  0  0  0  0
  104.2592    5.4984  -90.1881 C   0  0  0  0  0  0  0  0  0  0  0  0
   98.0060    5.1607  -85.8024 C   0  0  0  0  0  0  0  0  0  0  0  0
   99.6805    9.0727  -90.7617 C   0  0  0  0  0  0  0  0  0  0  0  0
  100.4175    3.8007  -92.9842 C   0  0  0  0  0  0  0  0  0  0  0  0
   95.5887    5.0027  -90.0489 O   0  0  0  0  0  0  0  0  0  0  0  0
  105.5752    1.3934  -94.7534 O   0  0  0  0  0  0  0  0  0  0  0  0
  105.7834    5.6425  -90.4464 C   0  0  0  0  0  0  0  0  0  0  0  0
   98.5298    4.4169  -91.7422 C   0  0  0  0  0  0  0  0  0  0  0  0
  103.3969    9.5709  -91.8209 C   0  0  0  0  0  0  0  0  0  0  0  0
   95.4744    4.3726  -87.0627 O   0  0  0  0  0  0  0  0  0  0  0  0
   98.8453    3.5915  -90.5579 O   0  0  0  0  0  0  0  0  0  0  0  0
  100.3751    6.1755  -92.6071 C   0  0  0  0  0  0  0  0  0  0  0  0
  103.9285    4.1529  -90.5675 O   0  0  0  0  0  0  0  0  0  0  0  0
   97.8704    7.8052  -89.1306 C   0  0  0  0  0  0  0  0  0  0  0  0
   99.6935    2.6716  -86.3341 C   0  0  0  0  0  0  0  0  0  0  0  0
   98.1801    6.4039  -83.5963 C   0  0  0  0  0  0  0  0  0  0  0  0
  105.5574    9.3214  -92.2538 N   0  0  0  0  0  0  0  0  0  0  0  0
  102.0908    9.4100  -91.3441 C   0  0  0  0  0  0  0  0  0  0  0  0
  102.0162    4.9470  -87.2624 C   0  0  0  0  0  0  0  0  0  0  0  0
  104.7261    2.2718  -91.7778 C   0  0  0  0  0  0  0  0  0  0  0  0
   96.5385    7.7831  -88.7300 C   0  0  0  0  0  0  0  0  0  0  0  0
  100.0702    2.6606  -92.7058 O   0  0  0  0  0  0  0  0  0  0  0  0
  104.6702    1.5637  -90.6796 O   0  0  0  0  0  0  0  0  0  0  0  0
  104.4695    0.8341  -93.8365 C   0  0  0  0  0  0  0  0  0  0  0  0
  102.3046    5.0533  -88.7290 C   0  0  0  0  0  0  0  0  0  0  0  0
   96.5654    4.2823  -87.7646 C   0  0  0  0  0  0  0  0  0  0  0  0
  105.2914    8.2980  -91.4453 C   0  0  0  0  0  0  0  0  0  0  0  0
   98.4289    3.8143  -83.7485 C   0  0  0  0  0  0  0  0  0  0  0  0
   96.1047    9.7071  -90.0416 C   0  0  0  0  0  0  0  0  0  0  0  0
  105.4381    1.6468  -92.9038 C   0  0  0  0  0  0  0  0  0  0  0  0
  105.9842    6.3792  -88.1591 O   0  0  0  0  0  0  0  0  0  0  0  0
  106.2943    6.7572  -89.4929 C   0  0  0  0  0  0  0  0  0  0  0  0
   96.6855    4.3067  -90.2456 C   0  0  0  0  0  0  0  0  0  0  0  0
   97.7836    5.0254  -83.0145 C   0  0  0  0  0  0  0  0  0  0  0  0
  100.7599    4.9162  -86.8083 N   0  0  0  0  0  0  0  0  0  0  0  0
   95.5937    8.6225  -89.2088 C   0  0  0  0  0  0  0  0  0  0  0  0
  102.5261    0.6156  -95.2776 C   0  0  0  0  0  0  0  0  0  0  0  0
  103.2507    1.6446  -94.2879 C   0  0  0  0  0  0  0  0  0  0  0  0
  100.2230    4.0098  -85.7822 C   0  0  0  0  0  0  0  0  0  0  0  0
  101.0271    8.5570  -91.1458 N   0  0  0  0  0  0  0  0  0  0  0  0
   98.2571   10.8615  -90.9818 C   0  0  0  0  0  0  0  0  0  0  0  0
   97.7115    6.4781  -85.0736 C   0  0  0  0  0  0  0  0  0  0  0  0
  101.1051    7.4082  -91.9318 C   0  0  0  0  0  0  0  0  0  0  0  0
   97.9409   12.1684  -91.3307 C   0  0  0  0  0  0  0  0  0  0  0  0
  101.5116    4.0109  -93.9895 C   0  0  0  0  0  0  0  0  0  0  0  0
  101.1465    1.6915  -95.0653 O   0  0  0  0  0  0  0  0  0  0  0  0
   96.7619    3.5014  -88.9287 O   0  0  0  0  0  0  0  0  0  0  0  0
  102.2879   -0.5682  -94.4661 O   0  0  0  0  0  0  0  0  0  0  0  0
  106.2472    8.0663  -90.3428 C   0  0  0  0  0  0  0  0  0  0  0  0
  104.6888    9.6394  -91.4429 C   0  0  0  0  0  0  0  0  0  0  0  0
   98.3406    8.7603  -90.0576 C   0  0  0  0  0  0  0  0  0  0  0  0
  106.6409    9.0825  -89.5894 O   0  0  0  0  0  0  0  0  0  0  0  0
  1  6  1  0
  1 12  1  0
  2 17  1  0
  2 21  1  0
  2 25  2  0
  3 14  1  0
  3 38  1  0
  4 16  1  0
  4 54  1  0
  5 21  1  0
  5 46  1  0
  6  7  1  0
  6 15  1  0
  6 39  1  0
  7 28  1  0
  8 15  1  0
  8 41  1  0
  8 52  1  0
  9 26  1  0
  9 33  1  0
 10 51  1  0
 10 58  1  0
 10 59  1  0
 11 32  2  0
 12 24  1  0
 12 46  1  0
 12 60  1  0
 13 42  2  0
 13 54  1  0
 13 64  1  0
 14 20  1  0
 14 26  1  0
 15 55  1  0
 16 53  1  0
 16 64  1  0
 17 35  2  0
 17 58  1  0
 18 46  1  0
 19 37  1  0
 20 45  1  0
 21 24  1  0
 22 31  1  0
 22 63  1  0
 23 39  2  0
 25 56  2  0
 27 34  2  0
 27 64  1  0
 28 52  1  0
 29 47  1  0
 29 55  1  0
 30 40  1  0
 30 63  1  0
 31 53  1  0
 32 38  1  0
 32 48  1  0
 33 36  1  0
 33 43  1  0
 34 49  1  0
 37 43  1  0
 37 51  1  0
 39 60  1  0
 40 62  1  0
 41 47  1  0
 42 49  1  0
 44 45  1  0
 45 62  1  0
 48 52  1  0
 50 51  1  0
 50 61  1  0
 53 56  1  0
 54 57  1  0
 62 65  1  0
M  END
$$$$
