
     RDKit          3D

 31 32  0  0  0  0  0  0  0  0999 V2000
  105.2551    1.3478  -93.8035 C   0  0  0  0  0  0  0  0  0  0  0  0
  102.4612    3.2188  -92.0698 N   0  0  0  0  0  0  0  0  0  0  0  0
  103.3232    0.3557  -92.5044 C   0  0  0  0  0  0  0  0  0  0  0  0
   98.3409    7.5693  -91.0947 C   0  0  0  0  0  0  0  0  0  0  0  0
  101.4757   10.3811  -90.4601 O   0  0  0  0  0  0  0  0  0  0  0  0
  101.1141    5.2773  -92.4973 C   0  0  0  0  0  0  0  0  0  0  0  0
   99.8779    7.6482  -91.4773 C   0  0  0  0  0  0  0  0  0  0  0  0
  103.3276    2.7782  -93.0749 C   0  0  0  0  0  0  0  0  0  0  0  0
  100.5181   10.0656  -91.1719 C   0  0  0  0  0  0  0  0  0  0  0  0
   99.1517   10.5670  -91.3111 C   0  0  0  0  0  0  0  0  0  0  0  0
   99.4108    5.4479  -90.6389 N   0  0  0  0  0  0  0  0  0  0  0  0
  107.3979    5.7582  -91.9197 O   0  0  0  0  0  0  0  0  0  0  0  0
  100.3032    6.2090  -91.5352 C   0  0  0  0  0  0  0  0  0  0  0  0
  104.1295    1.5989  -92.8342 C   0  0  0  0  0  0  0  0  0  0  0  0
   97.1780    4.6475  -88.9567 O   0  0  0  0  0  0  0  0  0  0  0  0
  103.1708    9.1210  -92.1117 O   0  0  0  0  0  0  0  0  0  0  0  0
  106.7912    4.7141  -90.9538 P   0  0  0  0  0  0  0  0  0  0  0  0
  102.3331    4.5754  -91.9481 C   0  0  0  0  0  0  0  0  0  0  0  0
  103.4943    5.3422  -91.6353 N   0  0  0  0  0  0  0  0  0  0  0  0
   99.6631    4.6459  -89.4747 C   0  0  0  0  0  0  0  0  0  0  0  0
  105.3851    5.3334  -90.2267 O   0  0  0  0  0  0  0  0  0  0  0  0
  104.6526    6.2554  -91.1620 C   0  0  0  0  0  0  0  0  0  0  0  0
  100.7534    4.0188  -89.2289 O   0  0  0  0  0  0  0  0  0  0  0  0
  106.3979    3.4654  -91.7202 O   0  0  0  0  0  0  0  0  0  0  0  0
  107.6242    4.4199  -89.7176 O   0  0  0  0  0  0  0  0  0  0  0  0
  102.6322    7.7546  -90.4592 O   0  0  0  0  0  0  0  0  0  0  0  0
   98.5409    4.4715  -88.4767 C   0  0  0  0  0  0  0  0  0  0  0  0
   98.0108    6.0016  -90.7670 C   0  0  0  0  0  0  0  0  0  0  0  0
  100.9264    8.7064  -91.6510 C   0  0  0  0  0  0  0  0  0  0  0  0
  102.3339    8.4468  -91.4264 C   0  0  0  0  0  0  0  0  0  0  0  0
   97.0642    4.7625  -90.4186 C   0  0  0  0  0  0  0  0  0  0  0  0
  1 14  1  0
  2  8  1  0
  2 18  2  3
  3 14  1  0
  4  7  1  0
  4 28  1  0
  5  9  2  0
  6 13  1  0
  6 18  1  0
  7 13  1  0
  7 29  1  0
  8 14  1  0
  9 10  1  0
  9 29  1  0
 11 13  1  0
 11 20  1  0
 11 28  1  0
 12 17  1  0
 15 27  1  0
 15 31  1  0
 16 30  2  0
 17 21  1  0
 17 24  1  0
 17 25  1  0
 18 19  1  0
 19 22  1  0
 20 23  2  0
 20 27  1  0
 21 22  1  0
 26 30  1  0
 28 31  1  0
 29 30  1  0
M  END
$$$$
