
     RDKit          3D

 32 35  0  0  0  0  0  0  0  0999 V2000
  101.2259    9.7708  -91.1189 N   0  0  0  0  0  0  0  0  0  0  0  0
   99.1339   11.0419  -91.4005 C   0  0  0  0  0  0  0  0  0  0  0  0
  100.7866    5.1900  -92.9284 C   0  0  0  0  0  0  0  0  0  0  0  0
  105.9913    7.0693  -92.0372 O   0  0  0  0  0  0  0  0  0  0  0  0
  106.0445    3.6329  -91.9073 C   0  0  0  0  0  0  0  0  0  0  0  0
  103.0910    2.1682  -90.7657 O   0  0  0  0  0  0  0  0  0  0  0  0
   99.0158    6.2766  -90.8315 C   0  0  0  0  0  0  0  0  0  0  0  0
  100.3227    2.8052  -92.5238 O   0  0  0  0  0  0  0  0  0  0  0  0
   99.0826    4.9440  -91.3075 O   0  0  0  0  0  0  0  0  0  0  0  0
   99.2404    8.5376  -90.6971 C   0  0  0  0  0  0  0  0  0  0  0  0
   97.7477   11.1721  -90.8562 C   0  0  0  0  0  0  0  0  0  0  0  0
  101.4323    2.8868  -93.5155 C   0  0  0  0  0  0  0  0  0  0  0  0
  105.8309    4.8683  -91.1357 C   0  0  0  0  0  0  0  0  0  0  0  0
   99.9591    7.3208  -90.9148 C   0  0  0  0  0  0  0  0  0  0  0  0
  102.2850    9.0660  -91.2100 C   0  0  0  0  0  0  0  0  0  0  0  0
   97.9297    8.2179  -90.3437 C   0  0  0  0  0  0  0  0  0  0  0  0
  103.8428    6.7852  -90.8835 C   0  0  0  0  0  0  0  0  0  0  0  0
  101.5352    4.3381  -93.9717 C   0  0  0  0  0  0  0  0  0  0  0  0
  106.7399    4.9807  -90.0712 O   0  0  0  0  0  0  0  0  0  0  0  0
  105.1464    6.1409  -91.5063 C   0  0  0  0  0  0  0  0  0  0  0  0
  107.1758    3.5545  -92.4922 O   0  0  0  0  0  0  0  0  0  0  0  0
  102.3495    0.3974  -92.1528 O   0  0  0  0  0  0  0  0  0  0  0  0
   99.7961    4.2115  -92.3069 C   0  0  0  0  0  0  0  0  0  0  0  0
   97.7873    6.7815  -90.4122 C   0  0  0  0  0  0  0  0  0  0  0  0
  101.6201    5.6945  -91.8971 O   0  0  0  0  0  0  0  0  0  0  0  0
  103.6148    5.8584  -89.7036 O   0  0  0  0  0  0  0  0  0  0  0  0
  105.2079    2.4071  -91.9765 O   0  0  0  0  0  0  0  0  0  0  0  0
   99.8570    9.7905  -91.0125 C   0  0  0  0  0  0  0  0  0  0  0  0
  103.3479    1.7169  -91.9546 P   0  0  0  0  0  0  0  0  0  0  0  0
  101.2511    6.9749  -91.2240 N   0  0  0  0  0  0  0  0  0  0  0  0
  102.8936    2.5865  -93.2124 O   0  0  0  0  0  0  0  0  0  0  0  0
  102.5208    7.6848  -91.0521 C   0  0  0  0  0  0  0  0  0  0  0  0
  1 15  2  0
  1 28  1  0
  2 11  1  0
  2 28  1  0
  3 18  1  0
  3 23  1  0
  3 25  1  0
  4 20  1  0
  5 13  1  0
  5 21  2  0
  5 27  1  0
  6 29  1  0
  7  9  1  0
  7 14  1  0
  7 24  1  0
  8 12  1  0
  8 23  1  0
  9 23  1  0
 10 14  2  0
 10 16  1  0
 10 28  1  0
 12 18  1  0
 12 31  1  0
 13 19  1  0
 13 20  1  0
 14 30  1  0
 15 32  1  0
 16 24  1  0
 17 20  1  0
 17 26  1  0
 17 32  1  0
 22 29  1  0
 25 30  1  0
 29 31  1  0
 30 32  1  0
M  END
$$$$
