
     RDKit          3D

 27 27  0  0  0  0  0  0  0  0999 V2000
   99.9390    7.6142  -90.9610 C   0  0  0  0  0  0  0  0  0  0  0  0
  105.2072    4.1212  -91.6066 C   0  0  0  0  0  0  0  0  0  0  0  0
   99.0857    5.7222  -89.6011 C   0  0  0  0  0  0  0  0  0  0  0  0
  104.4843    3.9809  -92.7990 C   0  0  0  0  0  0  0  0  0  0  0  0
   98.7084    8.2897  -91.1090 C   0  0  0  0  0  0  0  0  0  0  0  0
  104.8508    5.1497  -90.7658 O   0  0  0  0  0  0  0  0  0  0  0  0
   99.7430    4.0008  -87.8858 C   0  0  0  0  0  0  0  0  0  0  0  0
  103.4504    2.9337  -92.8442 C   0  0  0  0  0  0  0  0  0  0  0  0
  101.1368    8.2883  -91.0527 C   0  0  0  0  0  0  0  0  0  0  0  0
   99.8463   10.3680  -91.3780 C   0  0  0  0  0  0  0  0  0  0  0  0
  100.5776    5.3306  -91.8951 C   0  0  0  0  0  0  0  0  0  0  0  0
  106.4237    3.3042  -91.5493 C   0  0  0  0  0  0  0  0  0  0  0  0
   99.4797    2.6969  -87.7847 O   0  0  0  0  0  0  0  0  0  0  0  0
  101.5347    4.6536  -94.1079 C   0  0  0  0  0  0  0  0  0  0  0  0
  106.4044    2.3247  -90.6882 O   0  0  0  0  0  0  0  0  0  0  0  0
  102.2663    3.4796  -92.0543 C   0  0  0  0  0  0  0  0  0  0  0  0
   98.7257    4.7809  -88.5671 C   0  0  0  0  0  0  0  0  0  0  0  0
  103.9252    6.2793  -90.7995 C   0  0  0  0  0  0  0  0  0  0  0  0
  101.7708    4.7036  -92.6541 N   0  0  0  0  0  0  0  0  0  0  0  0
  102.2544    3.3084  -90.8239 O   0  0  0  0  0  0  0  0  0  0  0  0
   99.3787    4.5354  -92.2830 O   0  0  0  0  0  0  0  0  0  0  0  0
  102.4954    7.4173  -90.8316 C   0  0  0  0  0  0  0  0  0  0  0  0
  107.3094    3.5927  -92.4502 O   0  0  0  0  0  0  0  0  0  0  0  0
   98.6459    9.6704  -91.3109 C   0  0  0  0  0  0  0  0  0  0  0  0
  101.1227    9.6895  -91.2772 C   0  0  0  0  0  0  0  0  0  0  0  0
  100.0486    6.1659  -90.6781 C   0  0  0  0  0  0  0  0  0  0  0  0
  100.9771    4.6455  -87.4454 C   0  0  0  0  0  0  0  0  0  0  0  0
  1  5  1  0
  1  9  2  0
  1 26  1  0
  2  4  1  0
  2  6  1  0
  2 12  1  0
  3 17  1  0
  3 26  1  0
  4  8  1  0
  5 24  1  0
  6 18  1  0
  7 13  1  0
  7 17  1  0
  7 27  1  0
  8 16  1  0
  9 22  1  0
  9 25  1  0
 10 24  2  0
 10 25  1  0
 11 19  1  0
 11 21  2  0
 11 26  1  0
 12 15  2  0
 12 23  1  0
 14 19  1  0
 16 19  1  0
 16 20  2  0
M  END
$$$$
