
     RDKit          3D

 18 18  0  0  0  0  0  0  0  0999 V2000
  101.5376    5.2628  -91.9161 C   0  0  0  0  0  0  0  0  0  0  0  0
   99.7598    4.0990  -89.7279 O   0  0  0  0  0  0  0  0  0  0  0  0
   99.3491    8.0164  -90.4977 C   0  0  0  0  0  0  0  0  0  0  0  0
  100.7660    4.2120  -92.8387 C   0  0  0  0  0  0  0  0  0  0  0  0
  103.9278    2.6669  -91.7697 C   0  0  0  0  0  0  0  0  0  0  0  0
  106.2723    3.1312  -91.4258 C   0  0  0  0  0  0  0  0  0  0  0  0
   98.4978   10.0796  -91.4896 C   0  0  0  0  0  0  0  0  0  0  0  0
  107.4965    3.1408  -91.8227 O   0  0  0  0  0  0  0  0  0  0  0  0
  102.9636    5.0860  -91.8226 N   0  0  0  0  0  0  0  0  0  0  0  0
  102.0649    8.1777  -91.0736 N   0  0  0  0  0  0  0  0  0  0  0  0
   98.9848   11.4950  -91.6919 C   0  0  0  0  0  0  0  0  0  0  0  0
  105.3209    2.0189  -91.7601 C   0  0  0  0  0  0  0  0  0  0  0  0
  100.6939    5.9817  -90.9579 N   0  0  0  0  0  0  0  0  0  0  0  0
   99.5617    5.3186  -90.3532 C   0  0  0  0  0  0  0  0  0  0  0  0
  105.5023    4.4792  -91.6312 C   0  0  0  0  0  0  0  0  0  0  0  0
  104.0552    4.1289  -91.8741 C   0  0  0  0  0  0  0  0  0  0  0  0
   99.1165    9.3828  -90.4063 C   0  0  0  0  0  0  0  0  0  0  0  0
  100.6587    7.4169  -90.7888 C   0  0  0  0  0  0  0  0  0  0  0  0
  1  4  1  0
  1  9  2  3
  1 13  1  0
  2 14  1  0
  3 17  1  0
  3 18  1  0
  5 12  1  0
  5 16  1  0
  6  8  1  0
  6 12  1  0
  6 15  1  0
  7 11  1  0
  7 17  1  0
  9 16  1  0
 10 18  2  0
 13 14  1  0
 13 18  1  0
 15 16  1  0
M  END
$$$$
