
     RDKit          3D

 28 30  0  0  0  0  0  0  0  0999 V2000
  100.0820   10.1655  -91.1827 C   0  0  0  0  0  0  0  0  0  0  0  0
   99.0399    9.2201  -91.2027 C   0  0  0  0  0  0  0  0  0  0  0  0
  103.6789    3.6373  -92.5095 C   0  0  0  0  0  0  0  0  0  0  0  0
   98.5284    4.7544  -87.6836 C   0  0  0  0  0  0  0  0  0  0  0  0
   97.3978    4.2058  -88.4350 C   0  0  0  0  0  0  0  0  0  0  0  0
  103.0949    7.9335  -90.7915 N   0  0  0  0  0  0  0  0  0  0  0  0
  102.3200    5.4815  -91.6101 C   0  0  0  0  0  0  0  0  0  0  0  0
  105.6249    7.3507  -91.6447 C   0  0  0  0  0  0  0  0  0  0  0  0
  104.6715    9.8369  -91.8702 C   0  0  0  0  0  0  0  0  0  0  0  0
   99.5316    5.1558  -88.5368 C   0  0  0  0  0  0  0  0  0  0  0  0
  102.7928    1.9212  -93.9142 N   0  0  0  0  0  0  0  0  0  0  0  0
   99.3545    7.8705  -91.2132 C   0  0  0  0  0  0  0  0  0  0  0  0
   97.7721    4.3643  -89.8041 C   0  0  0  0  0  0  0  0  0  0  0  0
   99.9274    5.0280  -91.0180 C   0  0  0  0  0  0  0  0  0  0  0  0
  105.1559    2.1019  -93.5461 O   0  0  0  0  0  0  0  0  0  0  0  0
  102.4121    4.1534  -92.3751 C   0  0  0  0  0  0  0  0  0  0  0  0
  101.7231    8.3669  -91.0381 C   0  0  0  0  0  0  0  0  0  0  0  0
  101.0328    5.9904  -91.0920 C   0  0  0  0  0  0  0  0  0  0  0  0
  103.8738    2.5691  -93.2994 C   0  0  0  0  0  0  0  0  0  0  0  0
  100.6603    7.4267  -91.1289 C   0  0  0  0  0  0  0  0  0  0  0  0
   99.1048    4.9115  -89.8543 C   0  0  0  0  0  0  0  0  0  0  0  0
  101.4838    2.3933  -93.7372 C   0  0  0  0  0  0  0  0  0  0  0  0
  101.3140    3.4997  -92.9822 C   0  0  0  0  0  0  0  0  0  0  0  0
  104.9390    7.0829  -89.5376 O   0  0  0  0  0  0  0  0  0  0  0  0
  104.4671    7.3785  -90.6313 C   0  0  0  0  0  0  0  0  0  0  0  0
  105.9071    8.8799  -91.9004 C   0  0  0  0  0  0  0  0  0  0  0  0
   99.1033    4.9622  -92.2510 C   0  0  0  0  0  0  0  0  0  0  0  0
  101.4443    9.7554  -91.0868 C   0  0  0  0  0  0  0  0  0  0  0  0
  1  2  2  0
  1 28  1  0
  2 12  1  0
  3 16  2  0
  3 19  1  0
  4  5  1  0
  4 10  1  0
  5 13  1  0
  6 17  1  0
  6 25  1  0
  7 16  1  0
  7 18  1  0
  8 25  1  0
  8 26  1  0
  9 26  1  0
 10 21  1  0
 11 19  1  0
 11 22  1  0
 12 20  2  0
 13 21  1  0
 14 18  1  0
 14 21  1  0
 14 27  1  0
 15 19  2  0
 16 23  1  0
 17 20  1  0
 17 28  2  0
 18 20  1  0
 22 23  2  0
 24 25  2  0
M  END
$$$$
