
     RDKit          3D

 22 23  0  0  0  0  0  0  0  0999 V2000
   99.4186    5.0898  -92.4850 O   0  0  0  0  0  0  0  0  0  0  0  0
  101.7513    3.5484  -92.4280 C   0  0  0  0  0  0  0  0  0  0  0  0
  101.2836    4.8951  -91.9475 C   0  0  0  0  0  0  0  0  0  0  0  0
   99.9212    5.0997  -91.1493 C   0  0  0  0  0  0  0  0  0  0  0  0
  101.4151    9.0210  -91.4093 C   0  0  0  0  0  0  0  0  0  0  0  0
   98.4033   11.3238  -91.1061 C   0  0  0  0  0  0  0  0  0  0  0  0
  100.8201    2.5035  -92.5832 O   0  0  0  0  0  0  0  0  0  0  0  0
  105.9725    4.6410  -90.7035 O   0  0  0  0  0  0  0  0  0  0  0  0
  102.5570    5.5993  -91.6466 N   0  0  0  0  0  0  0  0  0  0  0  0
  105.9120    3.6108  -92.7838 O   0  0  0  0  0  0  0  0  0  0  0  0
   98.8434    4.8203  -88.1492 O   0  0  0  0  0  0  0  0  0  0  0  0
  100.8756    7.7973  -91.0593 C   0  0  0  0  0  0  0  0  0  0  0  0
   99.2320   10.0385  -91.0770 C   0  0  0  0  0  0  0  0  0  0  0  0
   99.1355    6.1529  -90.2476 C   0  0  0  0  0  0  0  0  0  0  0  0
   99.5702    5.7930  -88.7728 C   0  0  0  0  0  0  0  0  0  0  0  0
  100.5521   10.0442  -91.3723 C   0  0  0  0  0  0  0  0  0  0  0  0
   99.5589    7.5978  -90.6958 C   0  0  0  0  0  0  0  0  0  0  0  0
   98.7078    8.7667  -90.7390 C   0  0  0  0  0  0  0  0  0  0  0  0
  105.3928    4.4256  -91.8217 C   0  0  0  0  0  0  0  0  0  0  0  0
  103.1911    3.3829  -92.0156 C   0  0  0  0  0  0  0  0  0  0  0  0
  103.8670    4.7742  -91.8323 C   0  0  0  0  0  0  0  0  0  0  0  0
   97.6790    6.0683  -90.1891 O   0  0  0  0  0  0  0  0  0  0  0  0
  1  4  1  0
  2  3  1  0
  2  7  1  0
  2 20  1  0
  3  4  1  0
  3  9  1  0
  4 14  1  0
  5 12  1  0
  5 16  1  0
  6 13  1  0
  8 19  2  0
  9 21  2  0
 10 19  1  0
 11 15  1  0
 12 17  2  0
 13 16  2  0
 13 18  1  0
 14 15  1  0
 14 17  1  0
 14 22  1  0
 17 18  1  0
 19 21  1  0
 20 21  1  0
M  END
$$$$
