
     RDKit          3D

 35 37  0  0  0  0  0  0  0  0999 V2000
  106.5785    6.2055  -91.5344 C   0  0  0  0  0  0  0  0  0  0  0  0
   98.6821    4.1853  -87.0090 O   0  0  0  0  0  0  0  0  0  0  0  0
  100.6364    6.5158  -90.2499 N   0  0  0  0  0  0  0  0  0  0  0  0
   97.4293    8.4165  -90.0474 C   0  0  0  0  0  0  0  0  0  0  0  0
  108.0915    8.8479  -92.5368 C   0  0  0  0  0  0  0  0  0  0  0  0
   99.6574    7.5732  -90.3788 C   0  0  0  0  0  0  0  0  0  0  0  0
  100.0732    5.3734  -92.7231 S   0  0  0  0  0  0  0  0  0  0  0  0
  105.6803    7.4021  -91.2416 C   0  0  0  0  0  0  0  0  0  0  0  0
  106.5326    4.7140  -91.6863 C   0  0  0  0  0  0  0  0  0  0  0  0
  104.1425    4.3990  -91.4816 C   0  0  0  0  0  0  0  0  0  0  0  0
  100.2226    2.6106  -87.4556 O   0  0  0  0  0  0  0  0  0  0  0  0
   99.8437    3.7559  -87.3761 C   0  0  0  0  0  0  0  0  0  0  0  0
  107.2743    4.1432  -92.4645 O   0  0  0  0  0  0  0  0  0  0  0  0
   97.8346    9.6262  -90.5238 N   0  0  0  0  0  0  0  0  0  0  0  0
  104.6509    2.0038  -93.9544 O   0  0  0  0  0  0  0  0  0  0  0  0
  101.2869    4.9934  -93.8368 C   0  0  0  0  0  0  0  0  0  0  0  0
  105.4700    4.1738  -90.9716 O   0  0  0  0  0  0  0  0  0  0  0  0
  103.0121    2.3497  -90.8747 O   0  0  0  0  0  0  0  0  0  0  0  0
  103.2906    3.2497  -91.8707 C   0  0  0  0  0  0  0  0  0  0  0  0
  101.3829    3.4863  -93.8391 C   0  0  0  0  0  0  0  0  0  0  0  0
   99.5026   11.0803  -91.3018 N   0  0  0  0  0  0  0  0  0  0  0  0
  100.1069    8.7890  -90.8612 C   0  0  0  0  0  0  0  0  0  0  0  0
  101.5583    8.9826  -91.3251 C   0  0  0  0  0  0  0  0  0  0  0  0
  107.8880    6.7606  -92.0455 C   0  0  0  0  0  0  0  0  0  0  0  0
  103.8489    1.1117  -90.8931 C   0  0  0  0  0  0  0  0  0  0  0  0
   99.1630    9.8503  -90.9185 C   0  0  0  0  0  0  0  0  0  0  0  0
   98.3250    7.3716  -89.9717 C   0  0  0  0  0  0  0  0  0  0  0  0
  103.2528    1.8975  -93.9942 C   0  0  0  0  0  0  0  0  0  0  0  0
  102.6171    2.9666  -93.1482 C   0  0  0  0  0  0  0  0  0  0  0  0
  100.7937    4.8897  -87.8638 C   0  0  0  0  0  0  0  0  0  0  0  0
  100.8844    5.3900  -91.2441 C   0  0  0  0  0  0  0  0  0  0  0  0
  100.1625    4.3266  -90.1631 C   0  0  0  0  0  0  0  0  0  0  0  0
  108.3204    7.9609  -91.3335 C   0  0  0  0  0  0  0  0  0  0  0  0
  107.5630    7.6474  -93.1901 C   0  0  0  0  0  0  0  0  0  0  0  0
  100.1722    5.5490  -89.1191 C   0  0  0  0  0  0  0  0  0  0  0  0
  1  8  1  0
  1  9  1  0
  1 24  1  0
  2 12  2  0
  3  6  1  0
  3 31  1  0
  3 35  1  0
  4 14  2  0
  4 27  1  0
  5 33  1  0
  5 34  1  0
  6 22  1  0
  6 27  2  0
  7 16  1  0
  7 31  1  0
  9 13  2  0
  9 17  1  0
 10 17  1  0
 10 19  1  0
 11 12  1  0
 12 30  1  0
 14 26  1  0
 15 28  1  0
 16 20  1  0
 18 19  1  0
 18 25  1  0
 19 29  1  0
 20 29  1  0
 21 26  2  0
 22 23  1  0
 22 26  1  0
 24 33  1  0
 24 34  1  0
 28 29  1  0
 30 35  1  0
 31 32  1  0
 32 35  1  0
M  END
$$$$
