
     RDKit          3D

 25 26  0  0  0  0  0  0  0  0999 V2000
   97.6805    4.6776  -89.0099 C   0  0  0  0  0  0  0  0  0  0  0  0
  101.6370    2.9445  -92.0606 O   0  0  0  0  0  0  0  0  0  0  0  0
  101.9777    6.5881  -91.3294 C   0  0  0  0  0  0  0  0  0  0  0  0
   99.4997    5.4988  -92.8290 O   0  0  0  0  0  0  0  0  0  0  0  0
   98.1379    9.7554  -90.9166 C   0  0  0  0  0  0  0  0  0  0  0  0
  100.0003    8.2132  -91.1002 C   0  0  0  0  0  0  0  0  0  0  0  0
  100.1611   10.3606  -91.1894 C   0  0  0  0  0  0  0  0  0  0  0  0
   98.6486    8.4569  -90.9910 C   0  0  0  0  0  0  0  0  0  0  0  0
  104.0500    4.4830  -91.4670 C   0  0  0  0  0  0  0  0  0  0  0  0
  105.6525    2.5109  -91.8277 C   0  0  0  0  0  0  0  0  0  0  0  0
   99.6558    6.1635  -90.1115 N   0  0  0  0  0  0  0  0  0  0  0  0
  104.2362    2.9781  -91.5536 C   0  0  0  0  0  0  0  0  0  0  0  0
  105.9847    2.4838  -93.0833 O   0  0  0  0  0  0  0  0  0  0  0  0
  102.2189    9.0485  -91.8408 O   0  0  0  0  0  0  0  0  0  0  0  0
  100.7683    4.9381  -93.0557 C   0  0  0  0  0  0  0  0  0  0  0  0
   98.4864    5.5503  -88.2374 C   0  0  0  0  0  0  0  0  0  0  0  0
   99.0144   10.8425  -91.0464 C   0  0  0  0  0  0  0  0  0  0  0  0
  100.5732    6.8403  -90.9464 C   0  0  0  0  0  0  0  0  0  0  0  0
  100.8704    9.3207  -91.3956 C   0  0  0  0  0  0  0  0  0  0  0  0
  102.6132    5.1519  -91.3562 C   0  0  0  0  0  0  0  0  0  0  0  0
  101.7059    4.2448  -92.0884 C   0  0  0  0  0  0  0  0  0  0  0  0
   99.3659    6.1717  -88.9510 N   0  0  0  0  0  0  0  0  0  0  0  0
   97.8698    4.5867  -90.1819 N   0  0  0  0  0  0  0  0  0  0  0  0
  106.2596    2.0863  -90.7380 O   0  0  0  0  0  0  0  0  0  0  0  0
  102.8452    7.7934  -91.1523 C   0  0  0  0  0  0  0  0  0  0  0  0
  1 16  1  0
  1 23  2  0
  2 21  1  0
  3 18  1  0
  3 20  1  0
  3 25  1  0
  4 15  1  0
  5  8  2  0
  5 17  1  0
  6  8  1  0
  6 18  1  0
  6 19  2  0
  7 17  1  0
  7 19  1  0
  9 12  2  3
  9 20  1  0
 10 12  1  0
 10 13  2  0
 10 24  1  0
 11 18  1  0
 11 22  2  3
 14 19  1  0
 14 25  1  0
 15 21  1  0
 16 22  1  0
 20 21  1  0
M  END
$$$$
