
     RDKit          3D

 27 29  0  0  0  0  0  0  0  0999 V2000
  100.9389    5.1313  -90.4728 C   0  0  0  0  0  0  0  0  0  0  0  0
  102.4704    3.6601  -91.9723 N   0  0  0  0  0  0  0  0  0  0  0  0
  102.2487    4.6334  -90.9022 C   0  0  0  0  0  0  0  0  0  0  0  0
  105.5351    4.5962  -91.5559 C   0  0  0  0  0  0  0  0  0  0  0  0
  100.5053    6.4262  -90.5387 C   0  0  0  0  0  0  0  0  0  0  0  0
  103.5912    1.7900  -93.0159 C   0  0  0  0  0  0  0  0  0  0  0  0
  104.9668    3.2574  -91.5196 C   0  0  0  0  0  0  0  0  0  0  0  0
   99.9133    4.3004  -89.9758 N   0  0  0  0  0  0  0  0  0  0  0  0
  105.6858    9.4377  -92.0498 O   0  0  0  0  0  0  0  0  0  0  0  0
   99.1333    6.4767  -90.2269 C   0  0  0  0  0  0  0  0  0  0  0  0
   98.5404    7.9626  -90.5047 C   0  0  0  0  0  0  0  0  0  0  0  0
  101.2993    3.2867  -92.6341 N   0  0  0  0  0  0  0  0  0  0  0  0
  103.7008    2.9713  -92.1352 C   0  0  0  0  0  0  0  0  0  0  0  0
  100.0714   10.1191  -91.2408 C   0  0  0  0  0  0  0  0  0  0  0  0
  101.5088    2.8975  -93.9810 C   0  0  0  0  0  0  0  0  0  0  0  0
  106.9189    4.6477  -92.0740 C   0  0  0  0  0  0  0  0  0  0  0  0
  105.6460    2.3327  -90.8429 O   0  0  0  0  0  0  0  0  0  0  0  0
  102.3893    8.0518  -91.0528 C   0  0  0  0  0  0  0  0  0  0  0  0
  104.9667    5.6926  -90.7128 C   0  0  0  0  0  0  0  0  0  0  0  0
  106.6114    8.6562  -92.2210 C   0  0  0  0  0  0  0  0  0  0  0  0
  100.9938    7.7113  -90.8554 C   0  0  0  0  0  0  0  0  0  0  0  0
   98.7304    5.1743  -89.8347 C   0  0  0  0  0  0  0  0  0  0  0  0
  102.5379    1.8477  -94.0394 C   0  0  0  0  0  0  0  0  0  0  0  0
  106.4840    7.2713  -91.7396 C   0  0  0  0  0  0  0  0  0  0  0  0
   99.9727    8.6685  -90.8793 C   0  0  0  0  0  0  0  0  0  0  0  0
  105.1475    7.0562  -91.2477 N   0  0  0  0  0  0  0  0  0  0  0  0
  107.6086    8.8281  -93.2318 C   0  0  0  0  0  0  0  0  0  0  0  0
  1  3  1  0
  1  5  2  0
  1  8  1  0
  2  3  1  0
  2 12  1  0
  2 13  1  0
  4  7  1  0
  4 16  1  0
  4 19  1  0
  5 10  1  0
  5 21  1  0
  6 13  1  0
  6 23  2  0
  7 13  1  0
  7 17  1  0
  8 22  1  0
  9 20  2  0
 10 11  1  0
 10 22  1  0
 11 25  1  0
 12 15  1  0
 14 25  1  0
 15 23  1  0
 18 21  1  0
 19 26  1  0
 20 24  1  0
 20 27  1  0
 21 25  2  0
 24 26  1  0
M  END
$$$$
