
     RDKit          3D

 31 33  0  0  0  0  0  0  0  0999 V2000
  103.5108    3.9500  -92.2378 C   0  0  0  0  0  0  0  0  0  0  0  0
   98.9130   10.1466  -91.1901 C   0  0  0  0  0  0  0  0  0  0  0  0
  100.1850   10.5270  -91.0864 C   0  0  0  0  0  0  0  0  0  0  0  0
   99.4043    6.3056  -91.3867 C   0  0  0  0  0  0  0  0  0  0  0  0
  103.7467    2.8656  -93.0908 N   0  0  0  0  0  0  0  0  0  0  0  0
  103.2836    6.3108  -90.8960 C   0  0  0  0  0  0  0  0  0  0  0  0
   99.7347    7.8010  -91.3748 C   0  0  0  0  0  0  0  0  0  0  0  0
  105.1368    2.4717  -93.2170 C   0  0  0  0  0  0  0  0  0  0  0  0
  101.8797    5.2294  -88.3025 O   0  0  0  0  0  0  0  0  0  0  0  0
  102.8780    5.1230  -91.8619 C   0  0  0  0  0  0  0  0  0  0  0  0
  103.0789    5.6817  -88.2746 C   0  0  0  0  0  0  0  0  0  0  0  0
   97.1798    4.9902  -91.8314 C   0  0  0  0  0  0  0  0  0  0  0  0
  102.6274    2.1512  -93.6442 C   0  0  0  0  0  0  0  0  0  0  0  0
  105.2823    6.3177  -89.4141 C   0  0  0  0  0  0  0  0  0  0  0  0
   98.1798    5.8858  -92.1890 C   0  0  0  0  0  0  0  0  0  0  0  0
   99.3391    5.4472  -90.1569 C   0  0  0  0  0  0  0  0  0  0  0  0
  106.2154    3.1893  -92.6303 S   0  0  0  0  0  0  0  0  0  0  0  0
   98.6112    8.8226  -91.2820 C   0  0  0  0  0  0  0  0  0  0  0  0
  100.7334    6.3995  -91.9826 C   0  0  0  0  0  0  0  0  0  0  0  0
   97.2674    4.2692  -90.6204 C   0  0  0  0  0  0  0  0  0  0  0  0
  101.2716    9.6461  -91.1866 C   0  0  0  0  0  0  0  0  0  0  0  0
  105.5664    1.7307  -94.1484 O   0  0  0  0  0  0  0  0  0  0  0  0
   97.8516   11.2384  -91.1980 C   0  0  0  0  0  0  0  0  0  0  0  0
  101.4991    4.3491  -93.7414 N   0  0  0  0  0  0  0  0  0  0  0  0
  101.4833    5.3388  -92.6848 C   0  0  0  0  0  0  0  0  0  0  0  0
  100.9854    8.4022  -91.3245 C   0  0  0  0  0  0  0  0  0  0  0  0
  103.7393    5.6766  -87.1640 O   0  0  0  0  0  0  0  0  0  0  0  0
  102.6298    0.8758  -93.7070 O   0  0  0  0  0  0  0  0  0  0  0  0
   98.4271    4.5182  -89.8318 C   0  0  0  0  0  0  0  0  0  0  0  0
  101.4647    2.8954  -93.8388 N   0  0  0  0  0  0  0  0  0  0  0  0
  103.7908    6.0071  -89.4715 C   0  0  0  0  0  0  0  0  0  0  0  0
  1  5  1  0
  1 10  1  0
  2  3  1  0
  2 18  2  0
  2 23  1  0
  3 21  2  0
  4  7  1  0
  4 15  1  0
  4 16  1  0
  4 19  1  0
  5  8  1  0
  5 13  1  0
  6 10  1  0
  6 31  1  0
  7 18  1  0
  7 26  2  0
  8 17  1  0
  8 22  2  0
  9 11  2  0
 10 25  1  0
 11 27  1  0
 11 31  1  0
 12 15  2  0
 12 20  1  0
 13 28  2  0
 13 30  1  0
 14 31  1  0
 16 29  2  0
 19 25  1  0
 20 29  1  0
 21 26  1  0
 24 25  1  0
 24 30  1  0
M  END
$$$$
