
     RDKit          3D

 15 15  0  0  0  0  0  0  0  0999 V2000
   11.9051   56.6524   81.0065 C   0  0  0  0  0  0  0  0  0  0  0  0
   12.5183   58.5301   79.6881 C   0  0  0  0  0  0  0  0  0  0  0  0
   10.0564   57.6257   79.7875 C   0  0  0  0  0  0  0  0  0  0  0  0
   14.1178   57.5764   81.4649 C   0  0  0  0  0  0  0  0  0  0  0  0
   14.7094   56.1599   83.3063 O   0  0  0  0  0  0  0  0  0  0  0  0
   13.3487   56.3419   80.9214 C   0  0  0  0  0  0  0  0  0  0  0  0
   13.6637   58.7711   80.6343 C   0  0  0  0  0  0  0  0  0  0  0  0
   11.4800   57.5484   79.9355 C   0  0  0  0  0  0  0  0  0  0  0  0
   11.4529   56.8613   82.2144 O   0  0  0  0  0  0  0  0  0  0  0  0
   16.2770   57.2146   82.2424 O   0  0  0  0  0  0  0  0  0  0  0  0
    9.3358   56.3995   80.1347 C   0  0  0  0  0  0  0  0  0  0  0  0
    9.9101   55.1761   80.4797 O   0  0  0  0  0  0  0  0  0  0  0  0
   13.4044   59.9741   81.3262 O   0  0  0  0  0  0  0  0  0  0  0  0
   12.2834   59.4217   78.7404 O   0  0  0  0  0  0  0  0  0  0  0  0
   15.1217   56.9570   82.4453 C   0  0  0  0  0  0  0  0  0  0  0  0
  1  6  1  0
  1  8  1  0
  1  9  1  0
  2  7  1  0
  2  8  1  0
  2 14  1  0
  3  8  1  0
  3 11  1  0
  4  6  1  0
  4  7  1  0
  4 15  1  0
  5 15  2  0
  7 13  1  0
 10 15  1  0
 11 12  1  0
M  END
$$$$
