
     RDKit          3D

 21 21  0  0  0  0  0  0  0  0999 V2000
    9.3338   60.5454   79.3244 O   0  0  0  0  0  0  0  0  0  0  0  0
   14.7158   57.2767   79.9354 C   0  0  0  0  0  0  0  0  0  0  0  0
   13.7355   54.6984   84.7175 O   0  0  0  0  0  0  0  0  0  0  0  0
   10.3736   59.3236   81.1232 C   0  0  0  0  0  0  0  0  0  0  0  0
   13.8893   59.7527   79.6710 C   0  0  0  0  0  0  0  0  0  0  0  0
   15.4610   55.5944   83.1534 C   0  0  0  0  0  0  0  0  0  0  0  0
   11.0060   60.8436   81.8027 S   0  0  0  0  0  0  0  0  0  0  0  0
   12.5628   57.9842   81.0595 C   0  0  0  0  0  0  0  0  0  0  0  0
   15.7186   58.2669   79.8504 N   0  0  0  0  0  0  0  0  0  0  0  0
   14.2541   54.6968   83.4253 C   0  0  0  0  0  0  0  0  0  0  0  0
   12.8285   59.2207   80.3907 O   0  0  0  0  0  0  0  0  0  0  0  0
   13.6616   57.0351   80.9387 C   0  0  0  0  0  0  0  0  0  0  0  0
   15.3590   56.9745   83.1174 O   0  0  0  0  0  0  0  0  0  0  0  0
   13.4007   55.5728   81.1662 C   0  0  0  0  0  0  0  0  0  0  0  0
   11.0347   57.8829   81.3071 C   0  0  0  0  0  0  0  0  0  0  0  0
   15.1649   59.4174   79.0152 C   0  0  0  0  0  0  0  0  0  0  0  0
    9.9809   56.9881   82.0634 C   0  0  0  0  0  0  0  0  0  0  0  0
    9.7901   59.4473   79.6946 C   0  0  0  0  0  0  0  0  0  0  0  0
   12.0546   54.1060   82.6236 O   0  0  0  0  0  0  0  0  0  0  0  0
   13.1413   54.8605   82.4281 C   0  0  0  0  0  0  0  0  0  0  0  0
    9.8584   58.4118   78.9535 O   0  0  0  0  0  0  0  0  0  0  0  0
  1 18  2  0
  2  9  1  0
  2 12  1  0
  3 10  1  0
  4  7  1  0
  4 15  1  0
  4 18  1  0
  5 11  1  0
  5 16  1  0
  6 10  1  0
  6 13  1  0
  8 11  1  0
  8 12  1  0
  8 15  1  0
  9 16  1  0
 10 20  1  0
 12 14  1  0
 14 20  1  0
 15 17  1  0
 18 21  1  0
 19 20  1  0
M  END
$$$$
