
     RDKit          3D

 23 23  0  0  0  0  0  0  0  0999 V2000
   11.7273   60.2608   79.9032 C   0  0  0  0  0  0  0  0  0  0  0  0
   15.3464   59.0301   79.8813 C   0  0  0  0  0  0  0  0  0  0  0  0
   12.4306   60.9149   82.0305 O   0  0  0  0  0  0  0  0  0  0  0  0
   15.8089   60.1605   79.3115 O   0  0  0  0  0  0  0  0  0  0  0  0
   13.2422   60.2499   79.6549 C   0  0  0  0  0  0  0  0  0  0  0  0
   14.2923   55.1999   82.7391 C   0  0  0  0  0  0  0  0  0  0  0  0
   12.8383   55.1016   82.3593 C   0  0  0  0  0  0  0  0  0  0  0  0
   10.1238   61.3334   81.2978 O   0  0  0  0  0  0  0  0  0  0  0  0
   12.1329   53.8631   82.8672 C   0  0  0  0  0  0  0  0  0  0  0  0
   11.4903   52.5669   80.8321 C   0  0  0  0  0  0  0  0  0  0  0  0
   11.1079   59.0835   79.5480 O   0  0  0  0  0  0  0  0  0  0  0  0
   14.8661   56.6872   80.5242 C   0  0  0  0  0  0  0  0  0  0  0  0
   12.1162   55.6989   81.2928 O   0  0  0  0  0  0  0  0  0  0  0  0
   15.9807   57.7047   80.2816 C   0  0  0  0  0  0  0  0  0  0  0  0
   15.1276   56.1855   81.9472 C   0  0  0  0  0  0  0  0  0  0  0  0
   13.4902   60.8735   78.4033 O   0  0  0  0  0  0  0  0  0  0  0  0
   12.5583   53.5296   84.1209 O   0  0  0  0  0  0  0  0  0  0  0  0
   13.8532   58.8216   79.6208 C   0  0  0  0  0  0  0  0  0  0  0  0
   10.9716   53.4195   82.0228 C   0  0  0  0  0  0  0  0  0  0  0  0
   13.6774   57.4400   80.1182 O   0  0  0  0  0  0  0  0  0  0  0  0
   11.4125   61.0594   81.1552 C   0  0  0  0  0  0  0  0  0  0  0  0
   15.6346   57.1832   82.7652 O   0  0  0  0  0  0  0  0  0  0  0  0
   14.9338   54.8434   83.9319 O   0  0  0  0  0  0  0  0  0  0  0  0
  1  5  1  0
  1 11  1  0
  1 21  1  0
  2  4  1  0
  2 14  1  0
  2 18  1  0
  3 21  2  0
  5 16  1  0
  5 18  1  0
  6  7  1  0
  6 15  1  0
  6 23  1  0
  7  9  1  0
  7 13  1  0
  8 21  1  0
  9 17  1  0
  9 19  1  0
 10 19  1  0
 12 14  1  0
 12 15  1  0
 12 20  1  0
 15 22  1  0
 18 20  1  0
M  END
$$$$
