
     RDKit          3D

 22 24  0  0  0  0  0  0  0  0999 V2000
    2.2432   -0.0694   19.1650 C   0  0  0  0  0  0  0  0  0  0  0  0
    2.0090   -2.0401   16.8041 C   0  0  0  0  0  0  0  0  0  0  0  0
    0.9403   -0.2697   21.2246 C   0  0  0  0  0  0  0  0  0  0  0  0
   -1.1941   -3.3700   19.1433 N   0  0  0  0  0  0  0  0  0  0  0  0
   -1.6175   -5.0375   14.6683 O   0  0  0  0  0  0  0  0  0  0  0  0
   -1.5212   -3.7753   16.7815 C   0  0  0  0  0  0  0  0  0  0  0  0
    1.3268   -3.5457   16.2168 C   0  0  0  0  0  0  0  0  0  0  0  0
   -0.8835   -4.6672   15.7685 C   0  0  0  0  0  0  0  0  0  0  0  0
    1.9771    0.6336   20.5306 C   0  0  0  0  0  0  0  0  0  0  0  0
    4.4548   -2.5812   17.3888 C   0  0  0  0  0  0  0  0  0  0  0  0
   -0.6062   -1.7270   17.6268 O   0  0  0  0  0  0  0  0  0  0  0  0
    0.9449   -4.9050   14.0516 C   0  0  0  0  0  0  0  0  0  0  0  0
    3.4744   -2.0892   16.3183 C   0  0  0  0  0  0  0  0  0  0  0  0
    3.3748   -1.9053   20.2066 O   0  0  0  0  0  0  0  0  0  0  0  0
    2.1423   -1.5867   19.4908 C   0  0  0  0  0  0  0  0  0  0  0  0
    1.0099   -1.6653   20.5503 C   0  0  0  0  0  0  0  0  0  0  0  0
   -0.6213   -3.0803   17.8435 C   0  0  0  0  0  0  0  0  0  0  0  0
    5.6840   -2.2635   17.0814 O   0  0  0  0  0  0  0  0  0  0  0  0
    0.8317   -3.7484   17.8249 C   0  0  0  0  0  0  0  0  0  0  0  0
    1.8767   -2.4988   18.3001 N   0  0  0  0  0  0  0  0  0  0  0  0
    4.2063   -3.7418   17.9870 O   0  0  0  0  0  0  0  0  0  0  0  0
    0.5704   -4.7254   15.4952 C   0  0  0  0  0  0  0  0  0  0  0  0
  1  9  1  0
  1 15  1  0
  2  7  1  0
  2 13  1  0
  2 20  1  0
  3  9  1  0
  3 16  1  0
  4 17  1  0
  5  8  1  0
  6  8  2  0
  6 17  1  0
  7 19  1  0
  7 22  1  0
  8 22  1  0
 10 13  1  0
 10 18  2  0
 10 21  1  0
 11 17  1  0
 12 22  1  0
 14 15  1  0
 15 16  1  0
 15 20  1  0
 17 19  1  0
 19 20  1  0
M  END
$$$$
