
     RDKit          3D

 24 24  0  0  0  0  0  0  0  0999 V2000
    4.8259   -2.2359   17.2868 O   0  0  0  0  0  0  0  0  0  0  0  0
   -0.6271   -5.0952   14.5654 C   0  0  0  0  0  0  0  0  0  0  0  0
   -0.0644   -3.7179   18.8030 C   0  0  0  0  0  0  0  0  0  0  0  0
    1.3558    0.8315   20.9162 C   0  0  0  0  0  0  0  0  0  0  0  0
   -0.3987   -4.5780   17.5484 C   0  0  0  0  0  0  0  0  0  0  0  0
    3.1440    0.4317   18.4196 O   0  0  0  0  0  0  0  0  0  0  0  0
    0.8474   -4.7110   14.6392 C   0  0  0  0  0  0  0  0  0  0  0  0
    2.2980   -3.2713   16.1988 C   0  0  0  0  0  0  0  0  0  0  0  0
    3.1985   -4.2512   18.1870 O   0  0  0  0  0  0  0  0  0  0  0  0
    1.4687   -1.6503   20.8113 C   0  0  0  0  0  0  0  0  0  0  0  0
    2.6810   -1.4101   20.0033 C   0  0  0  0  0  0  0  0  0  0  0  0
    3.3096   -3.0480   15.3475 O   0  0  0  0  0  0  0  0  0  0  0  0
   -0.1442   -3.5927   16.4334 O   0  0  0  0  0  0  0  0  0  0  0  0
    2.7188   -0.8512   18.5924 C   0  0  0  0  0  0  0  0  0  0  0  0
    2.5305   -3.0996   17.6842 C   0  0  0  0  0  0  0  0  0  0  0  0
   -1.3929   -3.4926   19.3379 O   0  0  0  0  0  0  0  0  0  0  0  0
   -0.9867   -5.0467   13.1081 C   0  0  0  0  0  0  0  0  0  0  0  0
    0.4655   -2.5175   20.9806 O   0  0  0  0  0  0  0  0  0  0  0  0
    1.0264   -3.7565   15.7202 C   0  0  0  0  0  0  0  0  0  0  0  0
    1.1619   -2.8786   18.3794 C   0  0  0  0  0  0  0  0  0  0  0  0
    4.0619   -1.7001   20.4333 C   0  0  0  0  0  0  0  0  0  0  0  0
    2.0207   -5.2417   14.1921 O   0  0  0  0  0  0  0  0  0  0  0  0
    1.1738   -0.4377   21.7390 C   0  0  0  0  0  0  0  0  0  0  0  0
    3.5771   -1.8656   17.7611 C   0  0  0  0  0  0  0  0  0  0  0  0
  1 24  1  0
  2  7  1  0
  2 17  1  0
  3  5  1  0
  3 16  1  0
  3 20  1  0
  4 23  1  0
  5 13  1  0
  6 14  1  0
  7 19  1  0
  7 22  1  0
  8 12  1  0
  8 15  1  0
  8 19  1  0
  9 15  1  0
 10 11  1  0
 10 18  1  0
 10 23  1  0
 11 14  1  0
 11 21  1  0
 13 19  1  0
 14 24  1  0
 15 20  1  0
 15 24  1  0
M  END
$$$$
