
     RDKit          3D

 19 20  0  0  0  0  0  0  0  0999 V2000
    0.4647   -5.1383   13.4821 C   0  0  0  0  0  0  0  0  0  0  0  0
    2.8807   -0.2378   20.4635 C   0  0  0  0  0  0  0  0  0  0  0  0
    2.9674   -2.2973   19.0548 C   0  0  0  0  0  0  0  0  0  0  0  0
    3.8514   -2.7317   17.7783 C   0  0  0  0  0  0  0  0  0  0  0  0
    1.8785   -4.8355   14.1113 C   0  0  0  0  0  0  0  0  0  0  0  0
    1.6828   -3.4032   14.6656 C   0  0  0  0  0  0  0  0  0  0  0  0
    5.1977   -2.5182   17.1409 O   0  0  0  0  0  0  0  0  0  0  0  0
   -0.5447   -4.8646   14.6381 C   0  0  0  0  0  0  0  0  0  0  0  0
    1.4722   -1.9281   18.8524 C   0  0  0  0  0  0  0  0  0  0  0  0
    3.4011   -1.3106   15.9104 O   0  0  0  0  0  0  0  0  0  0  0  0
    2.1529    0.3224   19.2825 C   0  0  0  0  0  0  0  0  0  0  0  0
    1.1519   -1.7249   21.3285 C   0  0  0  0  0  0  0  0  0  0  0  0
    2.9049   -2.3124   16.5885 C   0  0  0  0  0  0  0  0  0  0  0  0
    1.9400   -3.2415   16.1543 C   0  0  0  0  0  0  0  0  0  0  0  0
    3.6983   -1.4788   20.0708 C   0  0  0  0  0  0  0  0  0  0  0  0
    1.3664   -0.7118   20.0910 C   0  0  0  0  0  0  0  0  0  0  0  0
   -0.1468   -4.6880   16.1113 C   0  0  0  0  0  0  0  0  0  0  0  0
    0.7390   -3.7847   16.9387 C   0  0  0  0  0  0  0  0  0  0  0  0
    0.0112   -1.8351   18.4472 O   0  0  0  0  0  0  0  0  0  0  0  0
  1  5  1  0
  1  8  1  0
  2 11  1  0
  2 15  1  0
  3  4  1  0
  3  9  1  0
  3 15  1  0
  4  7  1  0
  4 13  1  0
  5  6  1  0
  6 14  1  0
  8 17  1  0
  9 16  1  0
  9 19  1  0
 10 13  1  0
 11 16  1  0
 12 16  1  0
 13 14  1  0
 14 18  1  0
 17 18  1  0
M  END
$$$$
