
     RDKit          3D

 33 38  0  0  0  0  0  0  0  0999 V2000
    3.0862   20.8308  -35.3783 C   0  0  0  0  0  0  0  0  0  0  0  0
   -3.5344   23.8320  -28.0563 C   0  0  0  0  0  0  0  0  0  0  0  0
   -1.2611   23.9975  -31.0434 C   0  0  0  0  0  0  0  0  0  0  0  0
   -0.4533   18.6581  -31.0278 C   0  0  0  0  0  0  0  0  0  0  0  0
   -1.5975   22.1311  -29.3964 C   0  0  0  0  0  0  0  0  0  0  0  0
    1.0659   21.8113  -33.0073 C   0  0  0  0  0  0  0  0  0  0  0  0
   -2.3511   20.1393  -30.6352 O   0  0  0  0  0  0  0  0  0  0  0  0
   -2.0731   27.4885  -30.5286 O   0  0  0  0  0  0  0  0  0  0  0  0
    0.1274   23.8868  -33.0083 N   0  0  0  0  0  0  0  0  0  0  0  0
    3.9218   20.2157  -36.3293 C   0  0  0  0  0  0  0  0  0  0  0  0
    4.3284   18.3788  -34.8737 C   0  0  0  0  0  0  0  0  0  0  0  0
   -1.0027   26.0067  -32.4056 O   0  0  0  0  0  0  0  0  0  0  0  0
    1.6358   19.8006  -32.1177 C   0  0  0  0  0  0  0  0  0  0  0  0
   -1.8770   23.5070  -29.8707 C   0  0  0  0  0  0  0  0  0  0  0  0
   -2.7215   24.3462  -29.0851 C   0  0  0  0  0  0  0  0  0  0  0  0
   -1.4424   25.3644  -31.3288 C   0  0  0  0  0  0  0  0  0  0  0  0
   -0.2309   21.0132  -31.1204 C   0  0  0  0  0  0  0  0  0  0  0  0
   -2.8356   25.6687  -29.3431 C   0  0  0  0  0  0  0  0  0  0  0  0
    4.9205   17.1811  -34.6057 N   0  0  0  0  0  0  0  0  0  0  0  0
    2.8215   20.2101  -34.1671 C   0  0  0  0  0  0  0  0  0  0  0  0
   -1.1664   22.0817  -28.1247 O   0  0  0  0  0  0  0  0  0  0  0  0
    0.1166   22.0438  -32.0042 C   0  0  0  0  0  0  0  0  0  0  0  0
    3.3939   18.4249  -32.6972 N   0  0  0  0  0  0  0  0  0  0  0  0
   -0.4131   23.3353  -31.9737 C   0  0  0  0  0  0  0  0  0  0  0  0
   -2.7106   17.8080  -30.9618 O   0  0  0  0  0  0  0  0  0  0  0  0
   -1.3170   20.9981  -30.2067 C   0  0  0  0  0  0  0  0  0  0  0  0
   -2.1313   26.1843  -30.4029 C   0  0  0  0  0  0  0  0  0  0  0  0
    0.4324   19.7680  -31.3498 C   0  0  0  0  0  0  0  0  0  0  0  0
    1.8819   20.6491  -33.1918 C   0  0  0  0  0  0  0  0  0  0  0  0
    3.5073   19.0045  -33.9069 C   0  0  0  0  0  0  0  0  0  0  0  0
    4.5303   18.9803  -36.1053 C   0  0  0  0  0  0  0  0  0  0  0  0
   -1.9096   18.8566  -31.0839 C   0  0  0  0  0  0  0  0  0  0  0  0
    2.5579   18.8417  -31.8104 N   0  0  0  0  0  0  0  0  0  0  0  0
  1 10  1  0
  1 20  2  0
  2 15  1  0
  3 14  2  0
  3 16  1  0
  3 24  1  0
  4 28  1  0
  4 32  1  0
  5 14  1  0
  5 21  1  0
  5 26  1  0
  6 22  1  0
  6 29  2  0
  7 26  1  0
  7 32  1  0
  8 27  1  0
  9 24  2  0
 10 31  1  0
 11 19  1  0
 11 30  1  0
 11 31  2  0
 12 16  1  0
 13 28  1  0
 13 29  1  0
 13 33  1  0
 14 15  1  0
 15 18  2  0
 16 27  2  0
 17 22  2  0
 17 26  1  0
 17 28  1  0
 18 27  1  0
 20 29  1  0
 20 30  1  0
 22 24  1  0
 23 30  2  0
 23 33  1  0
 25 32  2  0
M  END
$$$$
