
     RDKit          3D

 30 35  0  0  0  0  0  0  0  0999 V2000
    0.6567   22.6341  -32.1207 C   0  0  0  0  0  0  0  0  0  0  0  0
   -0.8703   25.1048  -32.4934 C   0  0  0  0  0  0  0  0  0  0  0  0
   -0.5300   22.9093  -31.3710 C   0  0  0  0  0  0  0  0  0  0  0  0
    4.4800   17.3536  -35.4690 C   0  0  0  0  0  0  0  0  0  0  0  0
    1.8901   19.1746  -32.3530 N   0  0  0  0  0  0  0  0  0  0  0  0
   -0.8993   21.9230  -30.4194 C   0  0  0  0  0  0  0  0  0  0  0  0
   -4.1439   26.2361  -28.1403 C   0  0  0  0  0  0  0  0  0  0  0  0
   -0.9617   20.5997  -30.7266 C   0  0  0  0  0  0  0  0  0  0  0  0
   -2.8025   25.6406  -30.0726 C   0  0  0  0  0  0  0  0  0  0  0  0
   -1.8926   24.5688  -30.2623 C   0  0  0  0  0  0  0  0  0  0  0  0
   -1.8696   19.5794  -30.5068 C   0  0  0  0  0  0  0  0  0  0  0  0
   -2.4757   23.3571  -29.5823 C   0  0  0  0  0  0  0  0  0  0  0  0
   -3.3080   23.9418  -28.4991 C   0  0  0  0  0  0  0  0  0  0  0  0
   -1.3247   22.4802  -29.1478 C   0  0  0  0  0  0  0  0  0  0  0  0
   -3.8423   25.2282  -29.1032 C   0  0  0  0  0  0  0  0  0  0  0  0
    4.1711   19.8868  -35.2664 C   0  0  0  0  0  0  0  0  0  0  0  0
    2.7240   20.9311  -33.5420 N   0  0  0  0  0  0  0  0  0  0  0  0
   -0.1090   18.0129  -31.1091 C   0  0  0  0  0  0  0  0  0  0  0  0
    5.2795   18.8101  -37.3074 C   0  0  0  0  0  0  0  0  0  0  0  0
   -2.6133   26.7770  -30.4223 O   0  0  0  0  0  0  0  0  0  0  0  0
    0.9816   21.2818  -31.9880 C   0  0  0  0  0  0  0  0  0  0  0  0
   -3.3844   22.7082  -30.3385 O   0  0  0  0  0  0  0  0  0  0  0  0
   -1.1921   24.1404  -31.4356 C   0  0  0  0  0  0  0  0  0  0  0  0
    1.9164   20.5497  -32.6275 N   0  0  0  0  0  0  0  0  0  0  0  0
    3.3338   19.8301  -34.0003 C   0  0  0  0  0  0  0  0  0  0  0  0
    0.6850   19.0287  -31.5353 C   0  0  0  0  0  0  0  0  0  0  0  0
   -1.4141   18.2868  -30.6668 C   0  0  0  0  0  0  0  0  0  0  0  0
    4.4509   18.7067  -36.0332 C   0  0  0  0  0  0  0  0  0  0  0  0
    0.1670   20.3302  -31.3230 C   0  0  0  0  0  0  0  0  0  0  0  0
    2.9442   18.7801  -33.2162 N   0  0  0  0  0  0  0  0  0  0  0  0
  1  3  1  0
  1 21  1  0
  2 23  1  0
  3  6  1  0
  3 23  1  0
  4 28  1  0
  5 24  1  0
  5 26  1  0
  5 30  1  0
  6  8  1  0
  6 14  1  0
  7 15  1  0
  8 11  1  0
  8 29  2  0
  9 10  1  0
  9 15  1  0
  9 20  2  0
 10 12  1  0
 10 23  1  0
 11 27  2  0
 12 13  1  0
 12 14  1  0
 12 22  1  0
 13 15  1  0
 16 25  1  0
 16 28  1  0
 17 24  1  0
 17 25  2  0
 18 26  2  0
 18 27  1  0
 19 28  1  0
 21 24  1  0
 21 29  1  0
 25 30  1  0
 26 29  1  0
M  END
$$$$
