
     RDKit          3D

 35 38  0  0  0  0  0  0  0  0999 V2000
   37.6687   52.2964   42.9712 N   0  0  0  0  0  0  0  0  0  0  0  0
   39.3631   47.3805   40.8737 C   0  0  0  0  0  0  0  0  0  0  0  0
   38.7854   49.7322   41.1675 C   0  0  0  0  0  0  0  0  0  0  0  0
   30.8936   52.6217   36.6310 C   0  0  0  0  0  0  0  0  0  0  0  0
   34.5026   53.8850   45.8027 C   0  0  0  0  0  0  0  0  0  0  0  0
   39.2929   48.7331   40.5623 C   0  0  0  0  0  0  0  0  0  0  0  0
   39.0149   56.8326   44.1460 C   0  0  0  0  0  0  0  0  0  0  0  0
   30.4886   52.1647   35.4921 O   0  0  0  0  0  0  0  0  0  0  0  0
   33.7548   56.3323   45.6713 C   0  0  0  0  0  0  0  0  0  0  0  0
   34.9326   52.1884   42.6455 C   0  0  0  0  0  0  0  0  0  0  0  0
   32.2334   54.8932   45.6456 C   0  0  0  0  0  0  0  0  0  0  0  0
   38.5503   45.3928   43.7961 N   0  0  0  0  0  0  0  0  0  0  0  0
   33.5382   52.3580   39.2106 C   0  0  0  0  0  0  0  0  0  0  0  0
   35.0031   52.6320   45.1366 S   0  0  0  0  0  0  0  0  0  0  0  0
   32.2410   52.7228   38.5773 N   0  0  0  0  0  0  0  0  0  0  0  0
   36.9399   53.2144   43.5312 C   0  0  0  0  0  0  0  0  0  0  0  0
   35.5919   52.7552   43.7286 C   0  0  0  0  0  0  0  0  0  0  0  0
   34.8590   51.8543   41.2873 C   0  0  0  0  0  0  0  0  0  0  0  0
   37.3998   55.2285   44.8755 C   0  0  0  0  0  0  0  0  0  0  0  0
   38.1403   49.9691   42.3557 C   0  0  0  0  0  0  0  0  0  0  0  0
   32.0764   52.0423   37.2153 O   0  0  0  0  0  0  0  0  0  0  0  0
   32.4174   56.2470   46.3514 O   0  0  0  0  0  0  0  0  0  0  0  0
   39.1849   56.0608   42.9627 C   0  0  0  0  0  0  0  0  0  0  0  0
   38.8860   46.8742   42.0655 C   0  0  0  0  0  0  0  0  0  0  0  0
   33.6527   54.8757   45.0482 C   0  0  0  0  0  0  0  0  0  0  0  0
   38.8851   45.4711   42.3633 C   0  0  0  0  0  0  0  0  0  0  0  0
   37.5763   54.4635   43.7559 C   0  0  0  0  0  0  0  0  0  0  0  0
   38.0722   56.3962   45.0906 C   0  0  0  0  0  0  0  0  0  0  0  0
   38.2421   46.7276   44.2840 C   0  0  0  0  0  0  0  0  0  0  0  0
   30.2840   53.5589   37.1767 O   0  0  0  0  0  0  0  0  0  0  0  0
   38.0076   48.8959   43.2331 C   0  0  0  0  0  0  0  0  0  0  0  0
   33.6150   51.9506   40.5962 C   0  0  0  0  0  0  0  0  0  0  0  0
   37.6354   51.1810   42.6761 C   0  0  0  0  0  0  0  0  0  0  0  0
   38.4410   54.8993   42.7613 C   0  0  0  0  0  0  0  0  0  0  0  0
   38.3815   47.6143   43.1071 C   0  0  0  0  0  0  0  0  0  0  0  0
  1 16  2  3
  1 33  1  0
  2  6  1  0
  2 24  2  0
  3  6  2  0
  3 20  1  0
  4  8  2  0
  4 21  1  0
  4 30  1  0
  5 14  1  0
  5 25  1  0
  7 23  2  0
  7 28  1  0
  9 22  1  0
  9 25  1  0
 10 17  2  3
 10 18  1  0
 11 22  1  0
 11 25  1  0
 12 26  1  0
 12 29  1  0
 13 15  1  0
 13 32  2  3
 14 17  1  0
 15 21  1  0
 16 17  1  0
 16 27  1  0
 18 32  1  0
 19 27  1  0
 19 28  2  0
 20 31  1  0
 20 33  1  0
 23 34  1  0
 24 26  1  0
 24 35  1  0
 27 34  2  0
 29 35  1  0
 31 35  2  0
M  END
$$$$
