
     RDKit          3D

 33 36  0  0  0  0  0  0  0  0999 V2000
   38.1489   47.0724   43.4306 C   0  0  0  0  0  0  0  0  0  0  0  0
   35.3463   51.2784   45.8114 C   0  0  0  0  0  0  0  0  0  0  0  0
   37.4748   51.5578   42.6354 C   0  0  0  0  0  0  0  0  0  0  0  0
   31.8755   58.6740   44.8246 C   0  0  0  0  0  0  0  0  0  0  0  0
   37.0107   54.0535   42.3695 C   0  0  0  0  0  0  0  0  0  0  0  0
   39.3678   46.8570   40.5411 C   0  0  0  0  0  0  0  0  0  0  0  0
   36.0361   54.9107   42.8323 N   0  0  0  0  0  0  0  0  0  0  0  0
   33.2857   56.7904   43.4545 C   0  0  0  0  0  0  0  0  0  0  0  0
   39.7752   46.3505   39.1175 C   0  0  0  0  0  0  0  0  0  0  0  0
   37.4773   49.3439   43.8347 N   0  0  0  0  0  0  0  0  0  0  0  0
   37.0380   50.5924   43.6484 C   0  0  0  0  0  0  0  0  0  0  0  0
   34.0421   55.9219   42.6532 N   0  0  0  0  0  0  0  0  0  0  0  0
   36.5341   53.6421   45.4205 C   0  0  0  0  0  0  0  0  0  0  0  0
   38.8622   48.8078   41.8772 C   0  0  0  0  0  0  0  0  0  0  0  0
   39.3666   48.1965   40.8130 C   0  0  0  0  0  0  0  0  0  0  0  0
   33.5092   56.9348   44.8043 C   0  0  0  0  0  0  0  0  0  0  0  0
   38.5552   45.9794   42.7165 C   0  0  0  0  0  0  0  0  0  0  0  0
   37.9636   54.4580   41.6240 O   0  0  0  0  0  0  0  0  0  0  0  0
   36.5640   52.7352   44.3781 C   0  0  0  0  0  0  0  0  0  0  0  0
   34.8023   54.9995   43.2490 N   0  0  0  0  0  0  0  0  0  0  0  0
   39.0326   45.8741   41.4612 C   0  0  0  0  0  0  0  0  0  0  0  0
   38.1870   48.3987   43.0036 C   0  0  0  0  0  0  0  0  0  0  0  0
   37.0729   52.8382   43.0765 C   0  0  0  0  0  0  0  0  0  0  0  0
   38.4559   46.2701   36.4944 C   0  0  0  0  0  0  0  0  0  0  0  0
   35.2911   52.1776   46.8343 C   0  0  0  0  0  0  0  0  0  0  0  0
   36.1128   51.3375   44.6829 C   0  0  0  0  0  0  0  0  0  0  0  0
   32.3321   57.5361   42.7770 C   0  0  0  0  0  0  0  0  0  0  0  0
   38.8606   46.7575   37.9613 C   0  0  0  0  0  0  0  0  0  0  0  0
   31.5919   58.4944   43.4736 C   0  0  0  0  0  0  0  0  0  0  0  0
   35.1134   50.5614   45.0268 O   0  0  0  0  0  0  0  0  0  0  0  0
   31.2197   59.7378   45.5418 Cl  0  0  0  0  0  0  0  0  0  0  0  0
   35.9864   53.3669   46.6579 C   0  0  0  0  0  0  0  0  0  0  0  0
   32.8082   57.9345   45.4976 C   0  0  0  0  0  0  0  0  0  0  0  0
  1 17  1  0
  1 22  2  0
  2 25  1  0
  2 26  1  0
  2 30  2  0
  3 11  1  0
  3 23  1  0
  4 29  1  0
  4 31  1  0
  4 33  2  0
  5  7  1  0
  5 18  2  0
  5 23  1  0
  6  9  1  0
  6 15  1  0
  6 21  1  0
  7 20  1  0
  8 12  1  0
  8 16  2  0
  8 27  1  0
  9 28  1  0
 10 11  1  0
 10 22  1  0
 11 26  1  0
 12 20  1  0
 13 19  2  0
 13 32  1  0
 14 15  2  0
 14 22  1  0
 16 33  1  0
 17 21  2  0
 19 23  1  0
 19 26  1  0
 24 28  1  0
 25 32  2  0
 27 29  2  0
M  END
$$$$
