
     RDKit          3D

 27 29  0  0  0  0  0  0  0  0999 V2000
   33.6101   56.5072   43.1278 C   0  0  0  0  0  0  0  0  0  0  0  0
   38.1036   48.0199   43.7789 C   0  0  0  0  0  0  0  0  0  0  0  0
   39.6604   46.4549   37.1588 C   0  0  0  0  0  0  0  0  0  0  0  0
   36.0160   51.9913   43.7443 C   0  0  0  0  0  0  0  0  0  0  0  0
   38.3977   47.1164   42.9771 C   0  0  0  0  0  0  0  0  0  0  0  0
   32.3717   56.4912   45.6149 C   0  0  0  0  0  0  0  0  0  0  0  0
   39.5078   47.5921   39.4164 C   0  0  0  0  0  0  0  0  0  0  0  0
   35.8040   54.2573   43.1080 C   0  0  0  0  0  0  0  0  0  0  0  0
   35.6879   52.4836   46.5070 C   0  0  0  0  0  0  0  0  0  0  0  0
   38.7260   47.1683   41.7160 C   0  0  0  0  0  0  0  0  0  0  0  0
   30.8407   58.3112   44.8612 C   0  0  0  0  0  0  0  0  0  0  0  0
   32.5188   57.3077   43.3770 C   0  0  0  0  0  0  0  0  0  0  0  0
   35.3637   55.1340   43.8364 N   0  0  0  0  0  0  0  0  0  0  0  0
   35.8255   51.1911   46.0207 N   0  0  0  0  0  0  0  0  0  0  0  0
   38.9663   47.8515   40.7125 C   0  0  0  0  0  0  0  0  0  0  0  0
   35.3977   53.4967   45.5628 C   0  0  0  0  0  0  0  0  0  0  0  0
   37.3920   50.1565   44.7463 C   0  0  0  0  0  0  0  0  0  0  0  0
   34.1283   55.6916   44.1471 C   0  0  0  0  0  0  0  0  0  0  0  0
   37.6766   49.0688   44.1878 C   0  0  0  0  0  0  0  0  0  0  0  0
   36.3875   51.0798   44.7577 C   0  0  0  0  0  0  0  0  0  0  0  0
   38.7225   47.0732   38.2668 C   0  0  0  0  0  0  0  0  0  0  0  0
   35.7075   53.3571   44.1323 C   0  0  0  0  0  0  0  0  0  0  0  0
   33.4593   55.6402   45.3671 C   0  0  0  0  0  0  0  0  0  0  0  0
   35.9197   51.6445   42.4459 C   0  0  0  0  0  0  0  0  0  0  0  0
   36.0847   53.9788   41.8244 C   0  0  0  0  0  0  0  0  0  0  0  0
   31.9477   57.3120   44.6087 C   0  0  0  0  0  0  0  0  0  0  0  0
   36.0194   52.6093   41.4452 C   0  0  0  0  0  0  0  0  0  0  0  0
  1 12  1  0
  1 18  2  0
  2  5  1  0
  2 19  3  0
  3 21  1  0
  4 20  1  0
  4 22  1  0
  4 24  1  0
  5 10  1  0
  6 23  2  0
  6 26  1  0
  7 15  1  0
  7 21  1  0
  8 13  1  0
  8 22  2  0
  8 25  1  0
  9 14  1  0
  9 16  1  0
 10 15  2  3
 11 26  1  0
 12 26  2  0
 13 18  1  0
 14 20  1  0
 16 22  1  0
 17 19  1  0
 17 20  1  0
 18 23  1  0
 24 27  1  0
 25 27  2  0
M  END
$$$$
