
     RDKit          3D

 31 31  0  0  0  0  0  0  0  0999 V2000
   37.5420   49.3761   43.0548 C   0  0  0  0  0  0  0  0  0  0  0  0
   32.8651   51.7073   36.8606 C   0  0  0  0  0  0  0  0  0  0  0  0
   33.5013   50.9465   35.9202 O   0  0  0  0  0  0  0  0  0  0  0  0
   38.9798   48.7373   41.2271 C   0  0  0  0  0  0  0  0  0  0  0  0
   31.6051   52.0282   36.7150 O   0  0  0  0  0  0  0  0  0  0  0  0
   34.3798   51.1933   45.0715 C   0  0  0  0  0  0  0  0  0  0  0  0
   31.0675   58.0894   43.8392 C   0  0  0  0  0  0  0  0  0  0  0  0
   33.5432   52.2662   37.9789 C   0  0  0  0  0  0  0  0  0  0  0  0
   33.8002   52.2546   39.3284 C   0  0  0  0  0  0  0  0  0  0  0  0
   34.7442   52.2910   40.6196 O   0  0  0  0  0  0  0  0  0  0  0  0
   37.2581   54.4800   43.0832 C   0  0  0  0  0  0  0  0  0  0  0  0
   37.6037   48.0955   43.6461 C   0  0  0  0  0  0  0  0  0  0  0  0
   35.8637   53.8567   42.6082 C   0  0  0  0  0  0  0  0  0  0  0  0
   38.0825   54.4745   41.7768 C   0  0  0  0  0  0  0  0  0  0  0  0
   38.3205   49.6252   41.9869 C   0  0  0  0  0  0  0  0  0  0  0  0
   34.7309   55.5924   43.9580 C   0  0  0  0  0  0  0  0  0  0  0  0
   36.4489   50.0592   45.0016 N   0  0  0  0  0  0  0  0  0  0  0  0
   34.6878   56.0653   45.3494 C   0  0  0  0  0  0  0  0  0  0  0  0
   36.6753   50.3325   43.6653 C   0  0  0  0  0  0  0  0  0  0  0  0
   31.8660   59.3062   43.3629 N   0  0  0  0  0  0  0  0  0  0  0  0
   39.1770   47.3874   41.2292 C   0  0  0  0  0  0  0  0  0  0  0  0
   32.1599   57.0579   44.1175 C   0  0  0  0  0  0  0  0  0  0  0  0
   34.9397   54.1716   43.7723 C   0  0  0  0  0  0  0  0  0  0  0  0
   38.0619   46.9198   43.3486 C   0  0  0  0  0  0  0  0  0  0  0  0
   33.4069   55.8136   46.0343 C   0  0  0  0  0  0  0  0  0  0  0  0
   35.3709   50.4293   45.7096 C   0  0  0  0  0  0  0  0  0  0  0  0
   38.7847   46.4506   42.2020 C   0  0  0  0  0  0  0  0  0  0  0  0
   32.2536   56.6271   45.5420 C   0  0  0  0  0  0  0  0  0  0  0  0
   34.6987   51.6237   43.8208 C   0  0  0  0  0  0  0  0  0  0  0  0
   36.1130   52.4545   42.1073 N   0  0  0  0  0  0  0  0  0  0  0  0
   35.8517   51.4671   43.1804 C   0  0  0  0  0  0  0  0  0  0  0  0
  1 12  1  0
  1 15  1  0
  1 19  1  0
  2  3  2  0
  2  5  1  0
  2  8  1  0
  4 15  2  0
  4 21  1  0
  6 26  1  0
  6 29  2  0
  7 20  1  0
  7 22  1  0
  8  9  1  0
  9 10  1  0
 11 13  1  0
 11 14  1  0
 12 24  2  0
 13 23  1  0
 13 30  1  0
 16 18  1  0
 16 23  1  0
 17 19  1  0
 17 26  2  0
 18 25  1  0
 19 31  1  0
 21 27  2  0
 22 28  1  0
 24 27  1  0
 25 28  1  0
 29 31  1  0
 30 31  1  0
M  END
$$$$
