
     RDKit          3D

 31 34  0  0  0  0  0  0  0  0999 V2000
   35.8559   51.5502   42.7821 C   0  0  0  0  0  0  0  0  0  0  0  0
   31.8603   57.7531   43.0221 C   0  0  0  0  0  0  0  0  0  0  0  0
   34.6082   50.6879   43.0593 C   0  0  0  0  0  0  0  0  0  0  0  0
   34.5173   54.2881   45.0563 N   0  0  0  0  0  0  0  0  0  0  0  0
   36.8303   49.3105   43.3863 C   0  0  0  0  0  0  0  0  0  0  0  0
   35.6908   53.9494   42.6535 C   0  0  0  0  0  0  0  0  0  0  0  0
   38.0607   53.7140   41.8897 C   0  0  0  0  0  0  0  0  0  0  0  0
   39.8615   56.9218   40.9863 C   0  0  0  0  0  0  0  0  0  0  0  0
   33.1975   56.1087   44.1135 C   0  0  0  0  0  0  0  0  0  0  0  0
   38.9467   48.0740   41.8955 C   0  0  0  0  0  0  0  0  0  0  0  0
   34.9306   55.0300   42.8938 N   0  0  0  0  0  0  0  0  0  0  0  0
   31.5129   57.2927   45.3285 C   0  0  0  0  0  0  0  0  0  0  0  0
   38.2706   45.8260   42.4309 C   0  0  0  0  0  0  0  0  0  0  0  0
   39.0587   55.6264   40.6609 C   0  0  0  0  0  0  0  0  0  0  0  0
   36.6585   53.9299   41.4890 C   0  0  0  0  0  0  0  0  0  0  0  0
   40.6140   55.7201   40.6033 C   0  0  0  0  0  0  0  0  0  0  0  0
   38.7575   55.0292   42.0472 C   0  0  0  0  0  0  0  0  0  0  0  0
   39.1052   45.8038   41.1630 C   0  0  0  0  0  0  0  0  0  0  0  0
   36.1500   49.9173   44.6755 C   0  0  0  0  0  0  0  0  0  0  0  0
   39.2739   47.2436   40.7320 C   0  0  0  0  0  0  0  0  0  0  0  0
   31.1564   57.9831   44.1739 C   0  0  0  0  0  0  0  0  0  0  0  0
   38.8764   49.5467   41.8821 C   0  0  0  0  0  0  0  0  0  0  0  0
   35.1805   53.1751   44.7616 C   0  0  0  0  0  0  0  0  0  0  0  0
   34.2449   55.1111   44.0298 C   0  0  0  0  0  0  0  0  0  0  0  0
   38.2050   47.2526   42.8730 C   0  0  0  0  0  0  0  0  0  0  0  0
   37.3025   47.9035   43.8098 C   0  0  0  0  0  0  0  0  0  0  0  0
   34.7391   50.4730   44.6116 C   0  0  0  0  0  0  0  0  0  0  0  0
   38.1180   50.1600   43.0431 C   0  0  0  0  0  0  0  0  0  0  0  0
   35.5896   52.8621   43.4581 C   0  0  0  0  0  0  0  0  0  0  0  0
   32.8793   56.8371   42.9999 C   0  0  0  0  0  0  0  0  0  0  0  0
   32.5389   56.3604   45.2840 C   0  0  0  0  0  0  0  0  0  0  0  0
  1  3  1  0
  1 29  1  0
  2 21  2  0
  2 30  1  0
  3 27  1  0
  4 23  2  0
  4 24  1  0
  5 19  1  0
  5 26  1  0
  5 28  1  0
  6 11  1  0
  6 15  1  0
  6 29  1  0
  7 15  1  0
  7 17  1  0
  8 14  1  0
  8 16  1  0
  9 24  1  0
  9 30  2  0
  9 31  1  0
 10 20  1  0
 10 22  1  0
 10 25  1  0
 11 24  2  0
 12 21  1  0
 12 31  2  0
 13 18  1  0
 13 25  1  0
 14 17  1  0
 18 20  1  0
 19 27  1  0
 22 28  1  0
 23 29  1  0
 25 26  1  0
M  END
$$$$
