
     RDKit          3D

 21 21  0  0  0  0  0  0  0  0999 V2000
  -11.3597    4.7201  -30.5058 O   0  0  0  0  0  0  0  0  0  0  0  0
   -9.7071    2.4241  -32.1495 C   0  0  0  0  0  0  0  0  0  0  0  0
   -7.2023    4.5619  -30.7684 C   0  0  0  0  0  0  0  0  0  0  0  0
   -7.8330    4.9594  -28.4386 O   0  0  0  0  0  0  0  0  0  0  0  0
   -8.6480    6.0479  -28.1217 C   0  0  0  0  0  0  0  0  0  0  0  0
  -10.7513    5.3096  -26.8958 O   0  0  0  0  0  0  0  0  0  0  0  0
  -10.6674    3.5406  -30.1378 C   0  0  0  0  0  0  0  0  0  0  0  0
   -7.1013    2.1343  -31.9077 P   0  0  0  0  0  0  0  0  0  0  0  0
   -9.9531    3.9989  -28.7699 C   0  0  0  0  0  0  0  0  0  0  0  0
   -9.0102    5.1344  -29.2361 C   0  0  0  0  0  0  0  0  0  0  0  0
   -6.8229    3.2368  -30.5708 O   0  0  0  0  0  0  0  0  0  0  0  0
   -9.4582    3.4499  -31.0583 C   0  0  0  0  0  0  0  0  0  0  0  0
   -7.2534    3.3305  -33.0959 O   0  0  0  0  0  0  0  0  0  0  0  0
   -5.6000    1.7274  -32.3548 O   0  0  0  0  0  0  0  0  0  0  0  0
   -9.8494    4.1664  -27.1932 C   0  0  0  0  0  0  0  0  0  0  0  0
   -8.7110    4.8030  -30.7371 C   0  0  0  0  0  0  0  0  0  0  0  0
   -8.9943    6.0953  -31.4048 O   0  0  0  0  0  0  0  0  0  0  0  0
  -11.0021    2.0032  -32.2682 O   0  0  0  0  0  0  0  0  0  0  0  0
  -11.4745    2.4802  -29.7733 O   0  0  0  0  0  0  0  0  0  0  0  0
   -7.3031    0.8476  -30.9109 O   0  0  0  0  0  0  0  0  0  0  0  0
   -8.7423    1.5513  -32.7106 O   0  0  0  0  0  0  0  0  0  0  0  0
  1  7  1  0
  2 12  1  0
  2 18  2  0
  2 21  1  0
  3 11  1  0
  3 16  1  0
  4  5  1  0
  5 10  1  0
  6 15  1  0
  7  9  1  0
  7 12  1  0
  7 19  1  0
  8 11  1  0
  8 13  1  0
  8 14  1  0
  8 20  1  0
  9 10  1  0
  9 15  1  0
 10 16  1  0
 12 16  1  0
 16 17  1  0
M  END
$$$$
