
     RDKit          3D

 28 31  0  0  0  0  0  0  0  0999 V2000
   -7.5350    3.6162  -33.6605 O   0  0  0  0  0  0  0  0  0  0  0  0
   -6.3650    2.0464  -32.3710 O   0  0  0  0  0  0  0  0  0  0  0  0
   -8.9231    4.7083  -30.9856 C   0  0  0  0  0  0  0  0  0  0  0  0
  -14.1802    0.8970  -32.5645 C   0  0  0  0  0  0  0  0  0  0  0  0
   -9.3906    5.9965  -31.6182 O   0  0  0  0  0  0  0  0  0  0  0  0
  -13.1241    1.7925  -29.7166 C   0  0  0  0  0  0  0  0  0  0  0  0
   -8.1806    5.2928  -29.7516 O   0  0  0  0  0  0  0  0  0  0  0  0
  -10.3046    4.1751  -30.3668 C   0  0  0  0  0  0  0  0  0  0  0  0
   -8.8042    6.0804  -27.5421 C   0  0  0  0  0  0  0  0  0  0  0  0
   -6.0723    3.8609  -29.9734 O   0  0  0  0  0  0  0  0  0  0  0  0
   -7.2306    3.1848  -30.1438 C   0  0  0  0  0  0  0  0  0  0  0  0
   -8.5128    1.1249  -32.0956 O   0  0  0  0  0  0  0  0  0  0  0  0
  -13.7319    0.3901  -30.0848 C   0  0  0  0  0  0  0  0  0  0  0  0
   -8.0158    2.4911  -32.5717 P   0  0  0  0  0  0  0  0  0  0  0  0
  -12.9584    1.7868  -32.2700 C   0  0  0  0  0  0  0  0  0  0  0  0
  -10.4703    4.6580  -26.6460 C   0  0  0  0  0  0  0  0  0  0  0  0
  -14.6888    0.3137  -31.2664 C   0  0  0  0  0  0  0  0  0  0  0  0
   -8.8083    4.8683  -28.4842 C   0  0  0  0  0  0  0  0  0  0  0  0
  -11.6810    2.3514  -29.5127 C   0  0  0  0  0  0  0  0  0  0  0  0
  -13.3250    2.6162  -30.9964 C   0  0  0  0  0  0  0  0  0  0  0  0
   -8.1051    7.1704  -27.8094 O   0  0  0  0  0  0  0  0  0  0  0  0
   -9.4990    2.3275  -33.3183 O   0  0  0  0  0  0  0  0  0  0  0  0
   -8.1219    3.4939  -31.2329 C   0  0  0  0  0  0  0  0  0  0  0  0
  -10.0127    6.0510  -26.8376 N   0  0  0  0  0  0  0  0  0  0  0  0
   -9.9387    3.8328  -28.8960 C   0  0  0  0  0  0  0  0  0  0  0  0
  -11.6603    3.3284  -30.6967 C   0  0  0  0  0  0  0  0  0  0  0  0
   -9.3567    3.8261  -27.3074 C   0  0  0  0  0  0  0  0  0  0  0  0
  -11.1311    2.9651  -28.5111 O   0  0  0  0  0  0  0  0  0  0  0  0
  1 14  1  0
  2 14  1  0
  3  5  1  0
  3  7  1  0
  3  8  1  0
  3 23  1  0
  4 15  1  0
  4 17  1  0
  6 13  1  0
  6 19  1  0
  6 20  1  0
  7 18  1  0
  8 25  1  0
  8 26  1  0
  9 18  1  0
  9 21  2  0
  9 24  1  0
 10 11  1  0
 11 23  1  0
 12 14  1  0
 13 17  1  0
 14 22  1  0
 14 23  1  0
 15 20  1  0
 16 24  1  0
 16 27  1  0
 18 25  1  0
 18 27  1  0
 19 26  1  0
 19 28  1  0
 25 28  1  0
M  END
$$$$
