
     RDKit          3D

 15 15  0  0  0  0  0  0  0  0999 V2000
  -10.3383    3.8262  -26.7557 O   0  0  0  0  0  0  0  0  0  0  0  0
   -8.3492    1.4994  -31.9330 O   0  0  0  0  0  0  0  0  0  0  0  0
   -9.0033    3.2849  -29.1263 C   0  0  0  0  0  0  0  0  0  0  0  0
  -11.1650    3.2897  -28.7543 O   0  0  0  0  0  0  0  0  0  0  0  0
   -9.0931    5.0659  -31.6232 C   0  0  0  0  0  0  0  0  0  0  0  0
   -9.6128    5.4311  -28.2625 N   0  0  0  0  0  0  0  0  0  0  0  0
   -8.7646    5.6056  -29.3060 C   0  0  0  0  0  0  0  0  0  0  0  0
   -5.8733    1.9128  -32.0338 O   0  0  0  0  0  0  0  0  0  0  0  0
  -10.0052    3.8968  -28.1691 C   0  0  0  0  0  0  0  0  0  0  0  0
   -7.3839    3.3987  -33.3084 O   0  0  0  0  0  0  0  0  0  0  0  0
   -7.3088    2.5789  -31.9982 P   0  0  0  0  0  0  0  0  0  0  0  0
   -7.3743    3.5899  -30.7205 O   0  0  0  0  0  0  0  0  0  0  0  0
   -9.1029    6.5109  -31.5842 O   0  0  0  0  0  0  0  0  0  0  0  0
   -7.6858    6.3543  -29.1658 O   0  0  0  0  0  0  0  0  0  0  0  0
   -8.6451    4.4294  -30.2298 C   0  0  0  0  0  0  0  0  0  0  0  0
  1  9  1  0
  2 11  1  0
  3  9  1  0
  3 15  1  0
  4  9  1  0
  5 13  1  0
  5 15  1  0
  6  7  1  0
  6  9  1  0
  7 14  2  0
  7 15  1  0
  8 11  1  0
 10 11  1  0
 11 12  1  0
 12 15  1  0
M  END
$$$$
