
     RDKit          3D

 30 30  0  0  0  0  0  0  0  0999 V2000
   99.2346   10.2095  -91.1857 C   0  0  0  0  0  0  0  0  0  0  0  0
  100.8582    8.4667  -91.1099 C   0  0  0  0  0  0  0  0  0  0  0  0
   98.1193    9.5596  -90.7158 C   0  0  0  0  0  0  0  0  0  0  0  0
   97.1622    5.3721  -89.3781 N   0  0  0  0  0  0  0  0  0  0  0  0
   98.3335    4.0978  -91.6270 C   0  0  0  0  0  0  0  0  0  0  0  0
   97.8091    5.1115  -90.5936 C   0  0  0  0  0  0  0  0  0  0  0  0
  101.3618    5.4785  -91.5457 N   0  0  0  0  0  0  0  0  0  0  0  0
   99.9052    5.3112  -91.6912 C   0  0  0  0  0  0  0  0  0  0  0  0
  100.5834    9.7972  -91.2939 N   0  0  0  0  0  0  0  0  0  0  0  0
  105.0865    5.7743  -91.0868 P   0  0  0  0  0  0  0  0  0  0  0  0
   97.7631    8.2579  -90.4143 N   0  0  0  0  0  0  0  0  0  0  0  0
  101.3376    4.4599  -93.9966 O   0  0  0  0  0  0  0  0  0  0  0  0
  105.8482    6.1931  -92.1980 O   0  0  0  0  0  0  0  0  0  0  0  0
  105.9052    5.1195  -90.1213 O   0  0  0  0  0  0  0  0  0  0  0  0
  103.6369    6.1406  -90.9298 C   0  0  0  0  0  0  0  0  0  0  0  0
   97.9860    5.9556  -88.2966 C   0  0  0  0  0  0  0  0  0  0  0  0
   98.7847    7.3455  -90.6059 C   0  0  0  0  0  0  0  0  0  0  0  0
  106.3743    2.7140  -91.6425 P   0  0  0  0  0  0  0  0  0  0  0  0
   99.6492    4.0343  -88.7372 O   0  0  0  0  0  0  0  0  0  0  0  0
  102.2559    6.5469  -91.2049 C   0  0  0  0  0  0  0  0  0  0  0  0
  106.7530    2.0254  -90.4319 O   0  0  0  0  0  0  0  0  0  0  0  0
  102.0656    4.1062  -91.6246 C   0  0  0  0  0  0  0  0  0  0  0  0
  102.3354    3.8858  -93.0971 C   0  0  0  0  0  0  0  0  0  0  0  0
  107.3319    3.5674  -92.3760 O   0  0  0  0  0  0  0  0  0  0  0  0
   99.3319    5.2290  -88.1175 C   0  0  0  0  0  0  0  0  0  0  0  0
  102.0978    7.9283  -91.1848 N   0  0  0  0  0  0  0  0  0  0  0  0
   99.0690   11.6113  -91.6198 C   0  0  0  0  0  0  0  0  0  0  0  0
   99.8505    7.5623  -90.8527 C   0  0  0  0  0  0  0  0  0  0  0  0
   99.0742    6.0751  -90.6729 C   0  0  0  0  0  0  0  0  0  0  0  0
  105.0326    2.5628  -92.1761 O   0  0  0  0  0  0  0  0  0  0  0  0
  1  3  1  0
  1  9  2  0
  1 27  1  0
  2  9  1  0
  2 26  2  3
  2 28  1  0
  3 11  1  0
  4  6  1  0
  4 16  1  0
  5  6  1  0
  6 29  1  0
  7  8  1  0
  7 20  1  0
  7 22  1  0
  8 29  1  0
 10 13  1  0
 10 14  1  0
 10 15  1  0
 11 17  1  0
 12 23  1  0
 15 20  1  0
 16 25  1  0
 17 28  2  0
 17 29  1  0
 18 21  1  0
 18 24  1  0
 18 30  1  0
 19 25  1  0
 20 26  1  0
 22 23  1  0
M  END
$$$$
