
     RDKit          3D

 29 31  0  0  0  0  0  0  0  0999 V2000
   97.0845    5.9901  -89.4566 C   0  0  0  0  0  0  0  0  0  0  0  0
  101.6573    4.3628  -91.7405 C   0  0  0  0  0  0  0  0  0  0  0  0
   98.0455    6.6442  -90.2182 C   0  0  0  0  0  0  0  0  0  0  0  0
   96.0396    6.6288  -88.8593 C   0  0  0  0  0  0  0  0  0  0  0  0
   98.9003    8.7865  -90.7867 N   0  0  0  0  0  0  0  0  0  0  0  0
   96.9089    8.6755  -89.6814 C   0  0  0  0  0  0  0  0  0  0  0  0
   97.9802    8.0034  -90.2426 C   0  0  0  0  0  0  0  0  0  0  0  0
  105.9685    2.5383  -91.6842 C   0  0  0  0  0  0  0  0  0  0  0  0
   95.9521    8.0084  -88.9892 C   0  0  0  0  0  0  0  0  0  0  0  0
  103.7345    6.7820  -90.8042 C   0  0  0  0  0  0  0  0  0  0  0  0
  103.7807    5.3766  -90.7842 N   0  0  0  0  0  0  0  0  0  0  0  0
  102.8533    7.9034  -91.0786 C   0  0  0  0  0  0  0  0  0  0  0  0
   99.2614   11.1863  -91.5536 C   0  0  0  0  0  0  0  0  0  0  0  0
  101.0889    9.4853  -91.0831 C   0  0  0  0  0  0  0  0  0  0  0  0
   98.9837    5.8523  -90.8973 N   0  0  0  0  0  0  0  0  0  0  0  0
   99.4339    3.8800  -89.8291 O   0  0  0  0  0  0  0  0  0  0  0  0
  102.9187    3.7572  -92.3008 C   0  0  0  0  0  0  0  0  0  0  0  0
  100.1940    4.0891  -92.1156 C   0  0  0  0  0  0  0  0  0  0  0  0
  105.1328    1.6184  -91.0181 O   0  0  0  0  0  0  0  0  0  0  0  0
  104.0684    4.0543  -91.3480 C   0  0  0  0  0  0  0  0  0  0  0  0
  105.4290    3.9229  -91.9427 C   0  0  0  0  0  0  0  0  0  0  0  0
  100.2340    3.0676  -93.2007 O   0  0  0  0  0  0  0  0  0  0  0  0
  103.5017    8.9888  -91.6316 O   0  0  0  0  0  0  0  0  0  0  0  0
  101.4027    2.9879  -94.1856 C   0  0  0  0  0  0  0  0  0  0  0  0
  101.5621    8.2185  -90.8388 C   0  0  0  0  0  0  0  0  0  0  0  0
   99.3248    4.5581  -90.8731 C   0  0  0  0  0  0  0  0  0  0  0  0
  102.6109    2.6073  -93.2672 C   0  0  0  0  0  0  0  0  0  0  0  0
  104.9526    7.1908  -90.4569 O   0  0  0  0  0  0  0  0  0  0  0  0
   99.7261    9.7594  -91.0855 C   0  0  0  0  0  0  0  0  0  0  0  0
  1  3  2  0
  1  4  1  0
  2 17  2  0
  2 18  1  0
  3  7  1  0
  3 15  1  0
  4  9  2  0
  5  7  1  0
  5 29  1  0
  6  7  2  0
  6  9  1  0
  8 19  1  0
  8 21  1  0
 10 11  1  0
 10 12  1  0
 10 28  2  0
 11 20  1  0
 12 23  1  0
 12 25  2  3
 13 29  1  0
 14 25  1  0
 14 29  2  3
 15 26  1  0
 16 26  2  0
 17 20  1  0
 17 27  1  0
 18 22  1  0
 18 26  1  0
 20 21  1  0
 22 24  1  0
 24 27  1  0
M  END
$$$$
