
     RDKit          3D

 24 26  0  0  0  0  0  0  0  0999 V2000
  102.0518    6.9150  -91.9485 N   0  0  0  0  0  0  0  0  0  0  0  0
  100.1955    2.7139  -93.4063 O   0  0  0  0  0  0  0  0  0  0  0  0
  101.3412    3.4330  -93.1444 C   0  0  0  0  0  0  0  0  0  0  0  0
  106.3988    3.8791  -92.5309 O   0  0  0  0  0  0  0  0  0  0  0  0
   99.9501    5.0843  -92.0104 O   0  0  0  0  0  0  0  0  0  0  0  0
   99.6837    6.3896  -91.5985 C   0  0  0  0  0  0  0  0  0  0  0  0
  102.7789    9.4995  -91.5265 O   0  0  0  0  0  0  0  0  0  0  0  0
  101.5911    9.6459  -91.1594 C   0  0  0  0  0  0  0  0  0  0  0  0
   98.4002    6.7671  -91.2531 C   0  0  0  0  0  0  0  0  0  0  0  0
  100.5168    8.6562  -91.1890 C   0  0  0  0  0  0  0  0  0  0  0  0
  100.7265    7.3124  -91.5865 C   0  0  0  0  0  0  0  0  0  0  0  0
  105.9053    5.6969  -90.3540 C   0  0  0  0  0  0  0  0  0  0  0  0
   98.1743    8.0863  -90.8939 C   0  0  0  0  0  0  0  0  0  0  0  0
  102.4225    1.4224  -92.2116 O   0  0  0  0  0  0  0  0  0  0  0  0
  101.2578    4.6928  -92.3237 C   0  0  0  0  0  0  0  0  0  0  0  0
   99.2178    9.0239  -90.8403 C   0  0  0  0  0  0  0  0  0  0  0  0
  102.4257    5.5247  -91.9320 C   0  0  0  0  0  0  0  0  0  0  0  0
  106.5152    4.7150  -91.2911 C   0  0  0  0  0  0  0  0  0  0  0  0
  103.7827    4.8319  -91.5013 C   0  0  0  0  0  0  0  0  0  0  0  0
  103.7911    3.4547  -92.4137 C   0  0  0  0  0  0  0  0  0  0  0  0
  103.8691    6.7940  -89.9695 O   0  0  0  0  0  0  0  0  0  0  0  0
  101.2723   10.7500  -90.5787 O   0  0  0  0  0  0  0  0  0  0  0  0
  102.5511    2.6469  -92.6963 C   0  0  0  0  0  0  0  0  0  0  0  0
  104.4135    5.6286  -90.3588 C   0  0  0  0  0  0  0  0  0  0  0  0
  1 11  1  0
  1 17  1  0
  2  3  1  0
  3 15  1  0
  3 23  1  0
  4 18  1  0
  5  6  1  0
  5 15  1  0
  6  9  1  0
  6 11  2  0
  7  8  2  0
  8 10  1  0
  8 22  1  0
  9 13  2  0
 10 11  1  0
 10 16  2  0
 12 18  1  0
 12 24  1  0
 13 16  1  0
 14 23  1  0
 15 17  1  0
 17 19  1  0
 19 20  1  0
 19 24  1  0
 20 23  1  0
 21 24  1  0
M  END
$$$$
