
     RDKit          3D

 31 32  0  0  0  0  0  0  0  0999 V2000
   32.6218   33.3922  103.4127 N   0  0  0  0  0  0  0  0  0  0  0  0
   23.4783   32.1750  106.2264 C   0  0  0  0  0  0  0  0  0  0  0  0
   29.0369   34.5385  105.7185 C   0  0  0  0  0  0  0  0  0  0  0  0
   22.7335   34.9394  106.2864 C   0  0  0  0  0  0  0  0  0  0  0  0
   31.5509   34.1925  105.3781 C   0  0  0  0  0  0  0  0  0  0  0  0
   28.5409   35.1474  104.5466 C   0  0  0  0  0  0  0  0  0  0  0  0
   29.4889   35.3256  103.5887 C   0  0  0  0  0  0  0  0  0  0  0  0
   25.9542   34.1680  108.1157 O   0  0  0  0  0  0  0  0  0  0  0  0
   32.3285   33.1769  105.8926 F   0  0  0  0  0  0  0  0  0  0  0  0
   32.2710   35.2886  105.6938 F   0  0  0  0  0  0  0  0  0  0  0  0
   32.8281   33.6914  102.0146 O   0  0  0  0  0  0  0  0  0  0  0  0
   21.7091   33.9097  106.1691 N   0  0  0  0  0  0  0  0  0  0  0  0
   30.0682   33.5280  102.2464 O   0  0  0  0  0  0  0  0  0  0  0  0
   27.1816   35.6600  104.2675 C   0  0  0  0  0  0  0  0  0  0  0  0
   25.2951   36.0770  101.4153 C   0  0  0  0  0  0  0  0  0  0  0  0
   28.3282   34.0657  106.7141 Cl  0  0  0  0  0  0  0  0  0  0  0  0
   30.4117   34.3361  103.2255 C   0  0  0  0  0  0  0  0  0  0  0  0
   26.3584   36.6977  101.2338 O   0  0  0  0  0  0  0  0  0  0  0  0
   20.3384   34.3878  106.0399 C   0  0  0  0  0  0  0  0  0  0  0  0
   29.5573   36.5079  103.0668 O   0  0  0  0  0  0  0  0  0  0  0  0
   24.4237   33.2170  106.6126 C   0  0  0  0  0  0  0  0  0  0  0  0
   22.0462   32.6141  105.8357 C   0  0  0  0  0  0  0  0  0  0  0  0
   24.0547   34.4716  105.6581 C   0  0  0  0  0  0  0  0  0  0  0  0
   21.0923   31.7474  105.9297 O   0  0  0  0  0  0  0  0  0  0  0  0
   25.1382   35.3799  102.6529 N   0  0  0  0  0  0  0  0  0  0  0  0
   25.2269   34.3171  104.6653 C   0  0  0  0  0  0  0  0  0  0  0  0
   24.2795   36.1911  100.6279 O   0  0  0  0  0  0  0  0  0  0  0  0
   30.2489   34.2094  105.9958 C   0  0  0  0  0  0  0  0  0  0  0  0
   24.8545   33.7390  107.8459 C   0  0  0  0  0  0  0  0  0  0  0  0
   26.0910   35.0160  103.6280 C   0  0  0  0  0  0  0  0  0  0  0  0
   31.5043   34.0193  103.9688 C   0  0  0  0  0  0  0  0  0  0  0  0
  1 11  1  0
  1 31  1  0
  2 21  1  0
  2 22  1  0
  3  6  1  0
  3 16  1  0
  3 28  2  0
  4 12  1  0
  4 23  1  0
  5  9  1  0
  5 10  1  0
  5 28  1  0
  5 31  1  0
  6  7  1  0
  6 14  1  0
  7 17  1  0
  7 20  1  0
  8 29  2  0
 12 19  1  0
 12 22  1  0
 13 17  1  0
 14 30  1  0
 15 18  2  0
 15 25  1  0
 15 27  1  0
 17 31  1  0
 21 23  1  0
 21 29  1  0
 22 24  2  0
 23 26  1  0
 25 30  1  0
 26 30  1  0
M  END
$$$$
