
     RDKit          3D

 28 30  0  0  0  0  0  0  0  0999 V2000
   26.5787   35.9968  102.2340 N   0  0  0  0  0  0  0  0  0  0  0  0
   32.2901   33.9743  102.1102 O   0  0  0  0  0  0  0  0  0  0  0  0
   29.1652   35.5355  103.7799 C   0  0  0  0  0  0  0  0  0  0  0  0
   22.9325   35.6039   99.8630 F   0  0  0  0  0  0  0  0  0  0  0  0
   25.0665   36.7655  100.2596 C   0  0  0  0  0  0  0  0  0  0  0  0
   23.7078   32.1496  105.8075 C   0  0  0  0  0  0  0  0  0  0  0  0
   30.1398   35.2837  104.7773 O   0  0  0  0  0  0  0  0  0  0  0  0
   24.9656   34.9329  103.4683 C   0  0  0  0  0  0  0  0  0  0  0  0
   31.4375   35.3528  104.1190 C   0  0  0  0  0  0  0  0  0  0  0  0
   32.6941   33.4171  104.3944 O   0  0  0  0  0  0  0  0  0  0  0  0
   27.2005   34.6161  104.3579 C   0  0  0  0  0  0  0  0  0  0  0  0
   29.0808   33.1509  103.2701 C   0  0  0  0  0  0  0  0  0  0  0  0
   23.5128   33.1165  107.0658 C   0  0  0  0  0  0  0  0  0  0  0  0
   24.3698   35.2127  102.1642 C   0  0  0  0  0  0  0  0  0  0  0  0
   24.7449   34.1750  104.7080 C   0  0  0  0  0  0  0  0  0  0  0  0
   25.0437   34.7983  106.0147 C   0  0  0  0  0  0  0  0  0  0  0  0
   24.0670   35.9585   99.3901 C   0  0  0  0  0  0  0  0  0  0  0  0
   30.5154   33.0487  103.3220 C   0  0  0  0  0  0  0  0  0  0  0  0
   24.8170   33.9475  107.3343 C   0  0  0  0  0  0  0  0  0  0  0  0
   23.7305   33.0858  104.5579 C   0  0  0  0  0  0  0  0  0  0  0  0
   29.0231   36.6761  103.3669 O   0  0  0  0  0  0  0  0  0  0  0  0
   24.5505   35.5404   98.2221 F   0  0  0  0  0  0  0  0  0  0  0  0
   26.3233   35.4249  103.4916 C   0  0  0  0  0  0  0  0  0  0  0  0
   24.6228   34.7802  108.4070 O   0  0  0  0  0  0  0  0  0  0  0  0
   28.3690   34.3854  103.4593 C   0  0  0  0  0  0  0  0  0  0  0  0
   25.4458   35.9324  101.4570 C   0  0  0  0  0  0  0  0  0  0  0  0
   31.7355   33.9349  103.4780 C   0  0  0  0  0  0  0  0  0  0  0  0
   25.9291   33.2186  107.4929 O   0  0  0  0  0  0  0  0  0  0  0  0
  1 23  1  0
  1 26  1  0
  2 27  1  0
  3  7  1  0
  3 21  2  0
  3 25  1  0
  4 17  1  0
  5 17  1  0
  5 26  1  0
  6 13  1  0
  6 20  1  0
  7  9  1  0
  8 14  1  0
  8 15  1  0
  8 23  1  0
  9 27  1  0
 10 27  1  0
 11 23  1  0
 11 25  1  0
 12 18  2  0
 12 25  1  0
 13 19  1  0
 14 26  1  0
 15 16  1  0
 15 20  1  0
 16 19  1  0
 17 22  1  0
 18 27  1  0
 19 24  1  0
 19 28  1  0
M  END
$$$$
