
     RDKit          3D

 24 26  0  0  0  0  0  0  0  0999 V2000
   29.6910   33.7997  103.2749 C   0  0  0  0  0  0  0  0  0  0  0  0
   25.4144   35.1468  102.6316 C   0  0  0  0  0  0  0  0  0  0  0  0
   23.4180   36.2161   99.7562 F   0  0  0  0  0  0  0  0  0  0  0  0
   32.3498   33.7270  101.8606 O   0  0  0  0  0  0  0  0  0  0  0  0
   24.3378   35.2199  101.7259 C   0  0  0  0  0  0  0  0  0  0  0  0
   25.7328   35.9430  105.6708 O   0  0  0  0  0  0  0  0  0  0  0  0
   26.6510   36.6712  101.3156 C   0  0  0  0  0  0  0  0  0  0  0  0
   28.7994   36.3126  103.8890 C   0  0  0  0  0  0  0  0  0  0  0  0
   24.4256   34.6102  107.3274 O   0  0  0  0  0  0  0  0  0  0  0  0
   25.5645   36.8387  100.4389 C   0  0  0  0  0  0  0  0  0  0  0  0
   26.6476   35.8143  102.4267 C   0  0  0  0  0  0  0  0  0  0  0  0
   32.2806   34.3092  105.6022 C   0  0  0  0  0  0  0  0  0  0  0  0
   23.7991   34.5927  106.1235 N   0  0  0  0  0  0  0  0  0  0  0  0
   26.6994   35.2774  104.7804 C   0  0  0  0  0  0  0  0  0  0  0  0
   24.3523   35.0020  104.9594 C   0  0  0  0  0  0  0  0  0  0  0  0
   24.4107   36.0903  100.6280 C   0  0  0  0  0  0  0  0  0  0  0  0
   27.7255   35.3304  103.6041 C   0  0  0  0  0  0  0  0  0  0  0  0
   32.6393   33.5204  103.3063 N   0  0  0  0  0  0  0  0  0  0  0  0
   30.6729   34.6958  103.7940 C   0  0  0  0  0  0  0  0  0  0  0  0
   25.4395   34.4267  104.0207 C   0  0  0  0  0  0  0  0  0  0  0  0
   32.0110   34.3076  104.1743 C   0  0  0  0  0  0  0  0  0  0  0  0
   30.1441   35.9970  103.9797 C   0  0  0  0  0  0  0  0  0  0  0  0
   30.0081   32.5941  102.7111 F   0  0  0  0  0  0  0  0  0  0  0  0
   28.3493   34.0220  103.3202 C   0  0  0  0  0  0  0  0  0  0  0  0
  1 19  1  0
  1 23  1  0
  1 24  1  0
  2  5  1  0
  2 11  2  0
  2 20  1  0
  3 16  1  0
  4 18  1  0
  5 16  2  0
  6 14  1  0
  7 10  2  0
  7 11  1  0
  8 17  1  0
  8 22  2  0
  9 13  1  0
 10 16  1  0
 11 17  1  0
 12 21  1  0
 13 15  1  0
 14 17  1  0
 14 20  1  0
 15 20  1  0
 17 24  1  0
 18 21  1  0
 19 21  1  0
 19 22  1  0
M  END
$$$$
