
     RDKit          3D

 24 24  0  0  0  0  0  0  0  0999 V2000
  -15.7153   -8.5429   15.0340 O   0  0  0  0  0  0  0  0  0  0  0  0
  -21.8378  -11.1930   11.9728 C   0  0  0  0  0  0  0  0  0  0  0  0
  -22.3611  -12.1818   12.7848 O   0  0  0  0  0  0  0  0  0  0  0  0
  -16.8657   -6.4190   15.4032 O   0  0  0  0  0  0  0  0  0  0  0  0
  -21.1700  -12.3635    8.0995 C   0  0  0  0  0  0  0  0  0  0  0  0
  -16.9243   -7.8819   15.4563 C   0  0  0  0  0  0  0  0  0  0  0  0
  -23.6108   -9.5726   12.4500 O   0  0  0  0  0  0  0  0  0  0  0  0
  -20.0677  -12.7488    8.9745 N   0  0  0  0  0  0  0  0  0  0  0  0
  -17.2866   -8.3956   16.7238 O   0  0  0  0  0  0  0  0  0  0  0  0
  -21.3723  -11.5078   10.6161 C   0  0  0  0  0  0  0  0  0  0  0  0
  -19.6798   -8.7324   12.3386 C   0  0  0  0  0  0  0  0  0  0  0  0
  -18.8021  -13.1169    8.4609 C   0  0  0  0  0  0  0  0  0  0  0  0
  -18.9104   -7.6418   13.2405 C   0  0  0  0  0  0  0  0  0  0  0  0
  -21.1569   -8.8369   12.8790 C   0  0  0  0  0  0  0  0  0  0  0  0
  -17.7169  -12.9806    9.2984 N   0  0  0  0  0  0  0  0  0  0  0  0
  -20.3171  -12.4731   10.3581 C   0  0  0  0  0  0  0  0  0  0  0  0
  -18.3462   -9.8150   14.3069 C   0  0  0  0  0  0  0  0  0  0  0  0
  -19.8035  -13.1121   11.2841 O   0  0  0  0  0  0  0  0  0  0  0  0
  -18.1225   -8.2945   14.3438 C   0  0  0  0  0  0  0  0  0  0  0  0
  -20.0935  -13.7355    6.3239 C   0  0  0  0  0  0  0  0  0  0  0  0
  -21.2329  -12.9184    6.8114 C   0  0  0  0  0  0  0  0  0  0  0  0
  -18.7345  -13.6386    7.0386 C   0  0  0  0  0  0  0  0  0  0  0  0
  -22.2131   -9.8117   12.3253 C   0  0  0  0  0  0  0  0  0  0  0  0
  -22.3782  -12.3254    6.0508 C   0  0  0  0  0  0  0  0  0  0  0  0
  1  6  1  0
  2  3  1  0
  2 10  1  0
  2 23  1  0
  4  6  1  0
  5  8  1  0
  5 21  2  0
  6  9  1  0
  6 19  1  0
  7 23  1  0
  8 12  1  0
  8 16  1  0
 10 16  1  0
 11 13  1  0
 11 14  1  0
 12 15  2  0
 12 22  1  0
 13 19  1  0
 14 23  1  0
 16 18  2  0
 17 19  1  0
 20 21  1  0
 20 22  1  0
 21 24  1  0
M  END
$$$$
