
     RDKit          3D

 31 34  0  0  0  0  0  0  0  0999 V2000
  -20.2844  -13.5052    6.3697 C   0  0  0  0  0  0  0  0  0  0  0  0
  -19.2620  -10.5455   15.5022 O   0  0  0  0  0  0  0  0  0  0  0  0
  -22.6135  -12.7529    5.9152 C   0  0  0  0  0  0  0  0  0  0  0  0
  -22.0929  -10.8762   12.4070 C   0  0  0  0  0  0  0  0  0  0  0  0
  -16.3669   -5.4810   14.6926 O   0  0  0  0  0  0  0  0  0  0  0  0
  -16.2679   -6.7172   14.8957 C   0  0  0  0  0  0  0  0  0  0  0  0
  -17.0661  -12.9684    9.3424 C   0  0  0  0  0  0  0  0  0  0  0  0
  -19.1659  -13.4490    7.3127 C   0  0  0  0  0  0  0  0  0  0  0  0
  -20.5839   -9.5035   11.3128 O   0  0  0  0  0  0  0  0  0  0  0  0
  -17.3349   -7.5689   14.3952 C   0  0  0  0  0  0  0  0  0  0  0  0
  -21.7005  -12.0031    7.9710 C   0  0  0  0  0  0  0  0  0  0  0  0
  -18.8426   -9.4626   14.7306 C   0  0  0  0  0  0  0  0  0  0  0  0
  -17.8331   -7.4286   13.1565 C   0  0  0  0  0  0  0  0  0  0  0  0
  -20.6346  -10.0550   12.9963 C   0  0  0  0  0  0  0  0  0  0  0  0
  -18.8651   -8.2298   12.7044 C   0  0  0  0  0  0  0  0  0  0  0  0
  -16.7450  -13.6013    8.0514 C   0  0  0  0  0  0  0  0  0  0  0  0
  -21.4826  -12.7820    6.7844 N   0  0  0  0  0  0  0  0  0  0  0  0
  -17.3351   -8.7708   16.4918 O   0  0  0  0  0  0  0  0  0  0  0  0
  -19.4355   -9.2350   13.4924 C   0  0  0  0  0  0  0  0  0  0  0  0
  -19.4190  -12.7493    8.4794 C   0  0  0  0  0  0  0  0  0  0  0  0
  -20.4916  -11.5939   10.1680 C   0  0  0  0  0  0  0  0  0  0  0  0
  -22.1796  -12.1491   12.7863 O   0  0  0  0  0  0  0  0  0  0  0  0
  -17.8174   -8.5982   15.2206 C   0  0  0  0  0  0  0  0  0  0  0  0
  -21.4895  -10.6951   10.8296 C   0  0  0  0  0  0  0  0  0  0  0  0
  -20.6143  -12.1074    8.8630 C   0  0  0  0  0  0  0  0  0  0  0  0
  -19.1819  -11.9534   10.5504 C   0  0  0  0  0  0  0  0  0  0  0  0
  -18.4526  -12.6047    9.4872 C   0  0  0  0  0  0  0  0  0  0  0  0
  -17.8808  -13.9008    7.1085 O   0  0  0  0  0  0  0  0  0  0  0  0
  -23.1504  -10.0053   12.5569 O   0  0  0  0  0  0  0  0  0  0  0  0
  -15.1978   -7.1915   15.4611 O   0  0  0  0  0  0  0  0  0  0  0  0
  -18.5325  -11.8634   11.7124 F   0  0  0  0  0  0  0  0  0  0  0  0
  1  8  1  0
  1 17  1  0
  2 12  1  0
  3 17  1  0
  4 14  1  0
  4 22  1  0
  4 24  1  0
  4 29  1  0
  5  6  2  0
  6 10  1  0
  6 30  1  0
  7 16  1  0
  7 27  1  0
  8 20  2  0
  8 28  1  0
  9 24  1  0
 10 13  1  0
 10 23  2  0
 11 17  1  0
 11 25  1  0
 12 19  2  0
 12 23  1  0
 13 15  2  0
 14 19  1  0
 15 19  1  0
 16 28  1  0
 18 23  1  0
 20 25  1  0
 20 27  1  0
 21 24  1  0
 21 25  2  0
 21 26  1  0
 26 27  2  0
 26 31  1  0
M  END
$$$$
