
     RDKit          3D

 41 44  0  0  0  0  0  0  0  0999 V2000
  -23.4396   -9.3915   12.8278 O   0  0  0  0  0  0  0  0  0  0  0  0
  -19.8876  -10.6784   15.7668 C   0  0  0  0  0  0  0  0  0  0  0  0
  -19.1394  -13.2222    9.0439 C   0  0  0  0  0  0  0  0  0  0  0  0
  -20.3245  -11.3126   17.0332 C   0  0  0  0  0  0  0  0  0  0  0  0
  -18.6589  -10.0035   15.5999 C   0  0  0  0  0  0  0  0  0  0  0  0
  -21.6364  -11.6433   11.4494 C   0  0  0  0  0  0  0  0  0  0  0  0
  -16.6555  -13.4922    8.7689 C   0  0  0  0  0  0  0  0  0  0  0  0
  -22.3307  -12.1627   12.3615 O   0  0  0  0  0  0  0  0  0  0  0  0
  -15.4548   -5.9736   15.2445 C   0  0  0  0  0  0  0  0  0  0  0  0
  -18.0042   -7.6280   12.6767 C   0  0  0  0  0  0  0  0  0  0  0  0
  -22.7589  -11.4690    7.2202 C   0  0  0  0  0  0  0  0  0  0  0  0
  -20.0732   -9.3796   13.9263 C   0  0  0  0  0  0  0  0  0  0  0  0
  -21.3251  -13.0883    6.0828 C   0  0  0  0  0  0  0  0  0  0  0  0
  -17.8138   -8.3790   13.8474 N   0  0  0  0  0  0  0  0  0  0  0  0
  -16.5486   -8.2205   14.5068 C   0  0  0  0  0  0  0  0  0  0  0  0
  -20.7577  -10.2609   14.8058 O   0  0  0  0  0  0  0  0  0  0  0  0
  -15.0301   -6.1374   16.6208 C   0  0  0  0  0  0  0  0  0  0  0  0
  -21.5676   -8.1644   12.5188 O   0  0  0  0  0  0  0  0  0  0  0  0
  -20.8082  -12.8440    7.4226 C   0  0  0  0  0  0  0  0  0  0  0  0
  -21.5127  -11.7592    8.0665 O   0  0  0  0  0  0  0  0  0  0  0  0
  -15.7282   -4.7952   14.7447 O   0  0  0  0  0  0  0  0  0  0  0  0
  -22.0836   -9.5011   12.7460 C   0  0  0  0  0  0  0  0  0  0  0  0
  -22.5347  -12.3028    5.9268 C   0  0  0  0  0  0  0  0  0  0  0  0
  -15.8389   -9.2854   14.7293 O   0  0  0  0  0  0  0  0  0  0  0  0
  -19.5572  -12.4925   17.4807 C   0  0  0  0  0  0  0  0  0  0  0  0
  -16.2699   -6.3210   17.4736 C   0  0  0  0  0  0  0  0  0  0  0  0
  -16.0557   -6.9758   14.5681 N   0  0  0  0  0  0  0  0  0  0  0  0
  -21.5759  -10.1684   11.4749 C   0  0  0  0  0  0  0  0  0  0  0  0
  -16.8601  -13.5350    7.2324 C   0  0  0  0  0  0  0  0  0  0  0  0
  -18.2379  -13.4755    6.7281 C   0  0  0  0  0  0  0  0  0  0  0  0
  -17.7685  -12.9221    9.4227 C   0  0  0  0  0  0  0  0  0  0  0  0
  -20.5808  -14.1153   10.7115 O   0  0  0  0  0  0  0  0  0  0  0  0
  -17.5244   -6.4684   12.2573 O   0  0  0  0  0  0  0  0  0  0  0  0
  -19.2516   -7.9484   11.9295 C   0  0  0  0  0  0  0  0  0  0  0  0
  -17.5956  -12.6243   10.7203 O   0  0  0  0  0  0  0  0  0  0  0  0
  -18.7334   -9.2808   14.4340 C   0  0  0  0  0  0  0  0  0  0  0  0
  -19.4081  -13.3383    7.5918 C   0  0  0  0  0  0  0  0  0  0  0  0
  -20.2511   -8.4313   12.8374 C   0  0  0  0  0  0  0  0  0  0  0  0
  -20.3046  -13.0938    9.9357 C   0  0  0  0  0  0  0  0  0  0  0  0
  -20.4692  -13.5473    5.1414 O   0  0  0  0  0  0  0  0  0  0  0  0
  -20.5432  -11.8490   10.6020 O   0  0  0  0  0  0  0  0  0  0  0  0
  1 22  1  0
  2  4  1  0
  2  5  1  0
  2 16  1  0
  3 31  1  0
  3 37  1  0
  3 39  1  0
  4 25  1  0
  5 36  1  0
  6  8  2  0
  6 28  1  0
  6 41  1  0
  7 29  1  0
  7 31  1  0
  9 17  1  0
  9 21  2  0
  9 27  1  0
 10 14  1  0
 10 33  2  0
 10 34  1  0
 11 20  1  0
 11 23  1  0
 12 16  1  0
 12 36  2  0
 12 38  1  0
 13 19  1  0
 13 23  1  0
 13 40  1  0
 14 15  1  0
 14 36  1  0
 15 24  2  0
 15 27  1  0
 17 26  1  0
 18 22  1  0
 18 38  1  0
 19 20  1  0
 19 37  1  0
 22 28  1  0
 29 30  2  0
 30 37  1  0
 31 35  1  0
 32 39  2  0
 34 38  1  0
 39 41  1  0
M  END
$$$$
