
     RDKit          3D

 41 44  0  0  0  0  0  0  0  0999 V2000
  -20.7806  -12.4089    8.5149 N   0  0  0  0  0  0  0  0  0  0  0  0
  -21.9857  -12.1792    6.2578 C   0  0  0  0  0  0  0  0  0  0  0  0
  -16.6645   -7.9627   14.6493 C   0  0  0  0  0  0  0  0  0  0  0  0
  -19.8419  -13.5838    6.2055 C   0  0  0  0  0  0  0  0  0  0  0  0
  -16.7239   -7.8296   16.1749 C   0  0  0  0  0  0  0  0  0  0  0  0
  -21.2014  -12.2649    9.9168 C   0  0  0  0  0  0  0  0  0  0  0  0
  -16.4463   -6.4254   16.4427 C   0  0  0  0  0  0  0  0  0  0  0  0
  -22.3918  -11.9966   12.5376 O   0  0  0  0  0  0  0  0  0  0  0  0
  -17.1693   -5.7523   13.8716 C   0  0  0  0  0  0  0  0  0  0  0  0
  -21.1472   -8.9443   12.6870 C   0  0  0  0  0  0  0  0  0  0  0  0
  -20.0637  -12.6332   10.8149 O   0  0  0  0  0  0  0  0  0  0  0  0
  -22.3920   -9.5946   12.1705 C   0  0  0  0  0  0  0  0  0  0  0  0
  -19.2302  -10.3742   15.5961 O   0  0  0  0  0  0  0  0  0  0  0  0
  -21.9787  -10.9973   11.7823 C   0  0  0  0  0  0  0  0  0  0  0  0
  -21.9344   -9.1075   14.8407 O   0  0  0  0  0  0  0  0  0  0  0  0
  -16.3691  -10.2513   14.2866 F   0  0  0  0  0  0  0  0  0  0  0  0
  -14.2947   -6.8808   15.5137 O   0  0  0  0  0  0  0  0  0  0  0  0
  -20.4690  -13.9091   11.3344 O   0  0  0  0  0  0  0  0  0  0  0  0
  -16.6411  -14.3606    7.5996 N   0  0  0  0  0  0  0  0  0  0  0  0
  -17.8885   -4.9031   13.0800 O   0  0  0  0  0  0  0  0  0  0  0  0
  -15.8045   -5.3334   14.3054 C   0  0  0  0  0  0  0  0  0  0  0  0
  -23.6494   -9.5610   12.6742 O   0  0  0  0  0  0  0  0  0  0  0  0
  -18.5078   -9.1564   13.6803 C   0  0  0  0  0  0  0  0  0  0  0  0
  -18.6323   -7.8346   12.9804 C   0  0  0  0  0  0  0  0  0  0  0  0
  -19.3942  -12.8324    8.5216 C   0  0  0  0  0  0  0  0  0  0  0  0
  -18.9382  -12.8851    9.8654 C   0  0  0  0  0  0  0  0  0  0  0  0
  -21.7937  -14.0466    4.6254 C   0  0  0  0  0  0  0  0  0  0  0  0
  -17.4950  -13.5843    6.9795 C   0  0  0  0  0  0  0  0  0  0  0  0
  -19.6009   -9.6058   14.5284 C   0  0  0  0  0  0  0  0  0  0  0  0
  -15.3327   -5.8936   15.5907 C   0  0  0  0  0  0  0  0  0  0  0  0
  -21.6068  -10.8780   10.3214 C   0  0  0  0  0  0  0  0  0  0  0  0
  -17.2690   -9.2482   14.4444 C   0  0  0  0  0  0  0  0  0  0  0  0
  -21.2227  -13.3565    5.8381 C   0  0  0  0  0  0  0  0  0  0  0  0
  -17.8053  -12.6901   10.2986 O   0  0  0  0  0  0  0  0  0  0  0  0
  -18.8738  -13.5104    7.3549 C   0  0  0  0  0  0  0  0  0  0  0  0
  -19.9556   -8.2555   12.0814 C   0  0  0  0  0  0  0  0  0  0  0  0
  -17.2081   -7.1907   13.4565 C   0  0  0  0  0  0  0  0  0  0  0  0
  -16.5684   -6.0116   17.6403 O   0  0  0  0  0  0  0  0  0  0  0  0
  -14.9193   -5.2102   13.2796 O   0  0  0  0  0  0  0  0  0  0  0  0
  -21.7352  -11.7242    7.6249 C   0  0  0  0  0  0  0  0  0  0  0  0
  -20.9117   -9.4077   14.0569 C   0  0  0  0  0  0  0  0  0  0  0  0
  1  6  1  0
  1 25  1  0
  1 40  1  0
  2 33  1  0
  2 40  2  0
  3  5  1  0
  3 32  1  0
  3 37  1  0
  4 33  1  0
  4 35  2  0
  5  7  1  0
  6 31  1  0
  7 30  1  0
  7 38  2  0
  8 14  1  0
  9 20  1  0
  9 21  1  0
  9 37  1  0
 10 12  1  0
 10 36  2  0
 10 41  1  0
 11 18  1  0
 11 26  1  0
 12 14  1  0
 12 22  1  0
 13 29  1  0
 14 31  1  0
 15 41  1  0
 16 32  1  0
 17 30  1  0
 19 28  2  0
 21 30  1  0
 21 39  1  0
 23 24  1  0
 23 29  1  0
 23 32  1  0
 24 36  1  0
 24 37  1  0
 25 26  1  0
 25 35  1  0
 26 34  2  0
 27 33  1  0
 28 35  1  0
 29 41  1  0
M  END
$$$$
