
     RDKit          3D

 32 35  0  0  0  0  0  0  0  0999 V2000
  -16.1420   -8.4141   17.5111 O   0  0  0  0  0  0  0  0  0  0  0  0
  -22.0447  -12.3001    6.0269 C   0  0  0  0  0  0  0  0  0  0  0  0
  -18.7248  -13.6414    7.7004 C   0  0  0  0  0  0  0  0  0  0  0  0
  -16.5550  -13.2990    8.0741 C   0  0  0  0  0  0  0  0  0  0  0  0
  -20.8774  -12.3787    8.6322 C   0  0  0  0  0  0  0  0  0  0  0  0
  -20.0667  -13.1746    7.6372 O   0  0  0  0  0  0  0  0  0  0  0  0
  -17.9529  -12.8865    8.8527 C   0  0  0  0  0  0  0  0  0  0  0  0
  -19.7072   -7.5805   12.8353 C   0  0  0  0  0  0  0  0  0  0  0  0
  -14.6920   -7.0375   16.0200 O   0  0  0  0  0  0  0  0  0  0  0  0
  -20.2559  -12.8617   10.1990 C   0  0  0  0  0  0  0  0  0  0  0  0
  -22.2606  -10.3268   12.4999 N   0  0  0  0  0  0  0  0  0  0  0  0
  -16.9244   -7.9203   15.1031 C   0  0  0  0  0  0  0  0  0  0  0  0
  -21.0655   -9.8331   14.3870 O   0  0  0  0  0  0  0  0  0  0  0  0
  -18.0120   -7.2138   14.5393 C   0  0  0  0  0  0  0  0  0  0  0  0
  -16.8077   -6.2038   16.9683 O   0  0  0  0  0  0  0  0  0  0  0  0
  -21.4548  -10.9637    9.5035 C   0  0  0  0  0  0  0  0  0  0  0  0
  -21.8006  -11.5350   11.9226 C   0  0  0  0  0  0  0  0  0  0  0  0
  -16.0660   -7.3761   16.4715 S   0  0  0  0  0  0  0  0  0  0  0  0
  -17.8374  -10.3214   12.6105 C   0  0  0  0  0  0  0  0  0  0  0  0
  -17.3540  -14.2848    7.2207 C   0  0  0  0  0  0  0  0  0  0  0  0
  -18.8295  -12.9006   10.0496 N   0  0  0  0  0  0  0  0  0  0  0  0
  -22.1668  -12.0913    7.4587 C   0  0  0  0  0  0  0  0  0  0  0  0
  -23.5379  -10.0094   12.5625 O   0  0  0  0  0  0  0  0  0  0  0  0
  -20.7719   -8.3971   12.5272 C   0  0  0  0  0  0  0  0  0  0  0  0
  -20.7040  -13.8888   10.9013 O   0  0  0  0  0  0  0  0  0  0  0  0
  -21.3796   -9.4860   13.2064 C   0  0  0  0  0  0  0  0  0  0  0  0
  -17.7743   -9.1315   13.4248 C   0  0  0  0  0  0  0  0  0  0  0  0
  -19.9104   -8.2750   11.5210 C   0  0  0  0  0  0  0  0  0  0  0  0
  -21.3457  -13.3832    5.2276 C   0  0  0  0  0  0  0  0  0  0  0  0
  -20.8223  -11.5934   10.8330 N   0  0  0  0  0  0  0  0  0  0  0  0
  -16.7472   -9.0986   14.3801 C   0  0  0  0  0  0  0  0  0  0  0  0
  -18.5506   -7.9813   13.5151 C   0  0  0  0  0  0  0  0  0  0  0  0
  1 18  1  0
  2 22  1  0
  2 29  1  0
  3  6  1  0
  3  7  1  0
  3 20  1  0
  4  7  1  0
  4 20  1  0
  5  6  1  0
  5 10  1  0
  5 16  1  0
  5 22  1  0
  7 21  1  0
  8 24  1  0
  8 32  1  0
  9 18  1  0
 10 21  1  0
 10 25  1  0
 10 30  1  0
 11 17  1  0
 11 23  1  0
 11 26  1  0
 12 14  1  0
 12 18  1  0
 12 31  1  0
 13 26  2  0
 14 32  1  0
 15 18  1  0
 16 30  1  0
 17 30  1  0
 19 27  1  0
 24 26  1  0
 24 28  1  0
 27 31  1  0
 27 32  2  0
M  END
$$$$
