
     RDKit          3D

 11 10  0  0  0  0  0  0  0  0999 V2000
    0.9117   32.8494  -10.2908 O   0  0  0  0  0  0  0  0  0  0  0  0
    0.9832   29.1277  -13.0290 C   0  0  0  0  0  0  0  0  0  0  0  0
    0.9620   30.3603  -11.9263 C   0  0  0  0  0  0  0  0  0  0  0  0
    0.1361   31.3897  -12.6801 C   0  0  0  0  0  0  0  0  0  0  0  0
    0.4539   33.9607  -10.6823 C   0  0  0  0  0  0  0  0  0  0  0  0
    2.0377   30.0740  -12.9483 O   0  0  0  0  0  0  0  0  0  0  0  0
    0.7929   35.0779  -10.2124 O   0  0  0  0  0  0  0  0  0  0  0  0
   -0.3202   30.5963  -13.7554 O   0  0  0  0  0  0  0  0  0  0  0  0
   -1.2580   35.3745  -11.6307 C   0  0  0  0  0  0  0  0  0  0  0  0
   -0.5038   34.0452  -11.8129 C   0  0  0  0  0  0  0  0  0  0  0  0
   -0.7137   32.6371  -12.4550 C   0  0  0  0  0  0  0  0  0  0  0  0
  1  5  2  0
  2  6  1  0
  3  4  1  0
  3  6  1  0
  4  8  1  0
  4 11  1  0
  5  7  1  0
  5 10  1  0
  9 10  1  0
 10 11  1  0
M  END
$$$$
