
     RDKit          3D

 11 12  0  0  0  0  0  0  0  0999 V2000
    1.2532   31.0560  -12.4726 C   0  0  0  0  0  0  0  0  0  0  0  0
    1.1118   28.8296  -13.5082 C   0  0  0  0  0  0  0  0  0  0  0  0
   -0.3688   28.9751  -13.5783 C   0  0  0  0  0  0  0  0  0  0  0  0
    1.6199   32.0848  -11.6916 N   0  0  0  0  0  0  0  0  0  0  0  0
   -0.7911   30.3270  -13.6044 N   0  0  0  0  0  0  0  0  0  0  0  0
   -0.0165   31.3456  -13.0283 C   0  0  0  0  0  0  0  0  0  0  0  0
    0.1713   35.3776  -10.9055 N   0  0  0  0  0  0  0  0  0  0  0  0
    0.7404   34.1804  -10.8043 C   0  0  0  0  0  0  0  0  0  0  0  0
    1.8132   29.8560  -12.6657 N   0  0  0  0  0  0  0  0  0  0  0  0
   -0.3587   32.6294  -12.5208 C   0  0  0  0  0  0  0  0  0  0  0  0
    0.7164   33.1569  -11.8117 C   0  0  0  0  0  0  0  0  0  0  0  0
  1  4  1  0
  1  6  1  0
  1  9  2  0
  2  3  1  0
  2  9  1  0
  3  5  1  0
  4 11  1  0
  5  6  1  0
  6 10  1  0
  7  8  2  0
  8 11  1  0
 10 11  1  0
M  END
$$$$
