
     RDKit          3D

  9  8  0  0  0  0  0  0  0  0999 V2000
  -10.6371   -6.7688    4.1392 O   0  0  0  0  0  0  0  0  0  0  0  0
  -15.1656   -6.7811    5.3476 C   0  0  0  0  0  0  0  0  0  0  0  0
  -14.1929   -6.6020    4.3585 N   0  0  0  0  0  0  0  0  0  0  0  0
  -17.2934   -6.0554    6.2088 O   0  0  0  0  0  0  0  0  0  0  0  0
  -16.5153   -6.2811    5.1596 C   0  0  0  0  0  0  0  0  0  0  0  0
  -16.8801   -5.8694    3.8594 C   0  0  0  0  0  0  0  0  0  0  0  0
  -12.5186   -5.7760    5.7106 O   0  0  0  0  0  0  0  0  0  0  0  0
  -11.9644   -6.9314    3.8628 N   0  0  0  0  0  0  0  0  0  0  0  0
  -12.8600   -6.4492    4.7695 C   0  0  0  0  0  0  0  0  0  0  0  0
  1  8  1  0
  2  3  1  0
  2  5  1  0
  3  9  1  0
  4  5  1  0
  5  6  1  0
  7  9  2  0
  8  9  1  0
M  END
$$$$
