
     RDKit          3D

 11 11  0  0  0  0  0  0  0  0999 V2000
  -14.3797   -7.2022    5.8691 O   0  0  0  0  0  0  0  0  0  0  0  0
  -18.2930   -7.3809    4.2815 C   0  0  0  0  0  0  0  0  0  0  0  0
  -19.7375   -7.1903    4.1402 C   0  0  0  0  0  0  0  0  0  0  0  0
  -12.0812   -7.1574    3.8434 O   0  0  0  0  0  0  0  0  0  0  0  0
  -19.9248   -5.8398    3.5596 N   0  0  0  0  0  0  0  0  0  0  0  0
  -16.4521   -5.8075    4.9497 C   0  0  0  0  0  0  0  0  0  0  0  0
  -18.7375   -5.0887    3.9751 N   0  0  0  0  0  0  0  0  0  0  0  0
  -14.0665   -6.4383    4.8995 C   0  0  0  0  0  0  0  0  0  0  0  0
  -17.6215   -6.0296    4.0222 C   0  0  0  0  0  0  0  0  0  0  0  0
  -15.1246   -5.6490    4.2873 C   0  0  0  0  0  0  0  0  0  0  0  0
  -12.6548   -6.2095    4.6353 C   0  0  0  0  0  0  0  0  0  0  0  0
  1  8  2  0
  2  3  1  0
  2  9  1  0
  3  5  1  0
  4 11  1  0
  5  7  1  0
  6  9  1  0
  6 10  1  0
  7  9  1  0
  8 10  1  0
  8 11  1  0
M  END
$$$$
