
     RDKit          3D

 15 15  0  0  0  0  0  0  0  0999 V2000
  -13.6283   -6.3135    4.4049 C   0  0  0  0  0  0  0  0  0  0  0  0
  -16.0015   -6.4051    4.5351 C   0  0  0  0  0  0  0  0  0  0  0  0
  -11.7122   -6.6955    2.8397 N   0  0  0  0  0  0  0  0  0  0  0  0
  -12.4063   -6.3935    5.0794 C   0  0  0  0  0  0  0  0  0  0  0  0
  -17.7581   -4.7388    4.2455 C   0  0  0  0  0  0  0  0  0  0  0  0
  -12.1719   -6.6845    6.2750 N   0  0  0  0  0  0  0  0  0  0  0  0
  -14.7665   -5.6519    4.9434 C   0  0  0  0  0  0  0  0  0  0  0  0
  -17.2381   -5.7625    5.0070 C   0  0  0  0  0  0  0  0  0  0  0  0
  -18.9038   -4.0998    4.3445 C   0  0  0  0  0  0  0  0  0  0  0  0
  -11.3532   -6.7798    4.1326 C   0  0  0  0  0  0  0  0  0  0  0  0
  -19.9187   -4.1833    5.2340 C   0  0  0  0  0  0  0  0  0  0  0  0
  -17.8557   -6.2598    6.1162 C   0  0  0  0  0  0  0  0  0  0  0  0
  -10.2557   -7.0678    4.6412 N   0  0  0  0  0  0  0  0  0  0  0  0
  -19.9916   -5.0459    6.3221 C   0  0  0  0  0  0  0  0  0  0  0  0
  -19.0231   -5.9518    6.6504 C   0  0  0  0  0  0  0  0  0  0  0  0
  1  4  1  0
  1  7  1  0
  2  7  1  0
  2  8  1  0
  3 10  2  0
  4  6  2  0
  4 10  1  0
  5  8  1  0
  5  9  2  0
  8 12  1  0
  9 11  1  0
 10 13  1  0
 11 14  2  0
 12 15  2  0
 14 15  1  0
M  END
$$$$
