
     RDKit          3D

 29 33  0  0  0  0  0  0  0  0999 V2000
  -16.1188   16.3895  -25.8692 C   0  0  0  0  0  0  0  0  0  0  0  0
  -23.5957   15.3732  -28.2587 C   0  0  0  0  0  0  0  0  0  0  0  0
  -22.3807   15.9282  -30.4317 O   0  0  0  0  0  0  0  0  0  0  0  0
  -19.4741   15.3109  -29.3267 O   0  0  0  0  0  0  0  0  0  0  0  0
  -21.3688   17.8226  -29.5193 C   0  0  0  0  0  0  0  0  0  0  0  0
  -21.9549   16.4468  -29.1456 C   0  0  0  0  0  0  0  0  0  0  0  0
  -19.1026   18.7069  -30.4601 C   0  0  0  0  0  0  0  0  0  0  0  0
  -21.1276   20.0303  -30.1324 O   0  0  0  0  0  0  0  0  0  0  0  0
  -24.0714   14.3690  -28.9107 O   0  0  0  0  0  0  0  0  0  0  0  0
  -14.7933   16.4418  -28.0290 C   0  0  0  0  0  0  0  0  0  0  0  0
  -17.9506   16.8799  -29.6970 N   0  0  0  0  0  0  0  0  0  0  0  0
  -15.6584   15.6061  -27.1024 C   0  0  0  0  0  0  0  0  0  0  0  0
  -25.6905   16.4331  -27.5610 C   0  0  0  0  0  0  0  0  0  0  0  0
  -20.0452   17.7056  -30.0900 C   0  0  0  0  0  0  0  0  0  0  0  0
  -21.9521   19.1366  -29.5104 C   0  0  0  0  0  0  0  0  0  0  0  0
  -24.3893   16.5736  -28.0147 C   0  0  0  0  0  0  0  0  0  0  0  0
  -21.4420   16.1132  -27.7430 C   0  0  0  0  0  0  0  0  0  0  0  0
  -19.7953   19.9545  -30.3445 C   0  0  0  0  0  0  0  0  0  0  0  0
  -23.9502   17.8583  -28.1482 C   0  0  0  0  0  0  0  0  0  0  0  0
  -25.9734   18.8306  -27.4928 C   0  0  0  0  0  0  0  0  0  0  0  0
  -17.6400   18.1609  -30.3185 C   0  0  0  0  0  0  0  0  0  0  0  0
  -19.2498   16.5230  -29.6296 C   0  0  0  0  0  0  0  0  0  0  0  0
  -16.9445   16.2698  -28.9989 C   0  0  0  0  0  0  0  0  0  0  0  0
  -26.5015   17.5560  -27.3089 C   0  0  0  0  0  0  0  0  0  0  0  0
  -15.6500   16.9175  -29.2338 C   0  0  0  0  0  0  0  0  0  0  0  0
  -22.5199   15.0987  -27.3015 C   0  0  0  0  0  0  0  0  0  0  0  0
  -16.9237   15.4619  -27.8943 N   0  0  0  0  0  0  0  0  0  0  0  0
  -24.6814   18.9684  -27.9113 C   0  0  0  0  0  0  0  0  0  0  0  0
  -16.0449   18.0040  -30.2331 C   0  0  0  0  0  0  0  0  0  0  0  0
  1 12  1  0
  2  9  1  0
  2 16  1  0
  2 26  1  0
  3  6  1  0
  4 22  2  0
  5  6  1  0
  5 14  1  0
  5 15  1  0
  6 17  1  0
  7 14  1  0
  7 18  1  0
  7 21  1  0
  8 15  1  0
  8 18  1  0
 10 12  1  0
 10 25  1  0
 11 21  1  0
 11 22  1  0
 11 23  1  0
 12 27  1  0
 13 16  2  0
 13 24  1  0
 14 22  1  0
 16 19  1  0
 17 26  1  0
 19 28  2  0
 20 24  2  0
 20 28  1  0
 21 29  1  0
 23 25  2  0
 23 27  1  0
 25 29  1  0
M  END
$$$$
