
     RDKit          3D

 23 25  0  0  0  0  0  0  0  0999 V2000
   23.4488   23.5228   18.1141 C   0  0  0  0  0  0  0  0  0  0  0  0
   22.9640   20.9538   20.0766 C   0  0  0  0  0  0  0  0  0  0  0  0
   21.7521   23.0898   20.5343 C   0  0  0  0  0  0  0  0  0  0  0  0
   21.9018   17.8342   20.7557 C   0  0  0  0  0  0  0  0  0  0  0  0
   21.3236   23.7749   23.0817 C   0  0  0  0  0  0  0  0  0  0  0  0
   24.1019   24.7245   17.3632 C   0  0  0  0  0  0  0  0  0  0  0  0
   23.9069   26.1898   17.5775 C   0  0  0  0  0  0  0  0  0  0  0  0
   23.4511   19.6972   20.7263 C   0  0  0  0  0  0  0  0  0  0  0  0
   23.1161   18.6983   20.1016 C   0  0  0  0  0  0  0  0  0  0  0  0
   19.5970   23.6231   21.1486 C   0  0  0  0  0  0  0  0  0  0  0  0
   21.5536   20.8544   19.3858 C   0  0  0  0  0  0  0  0  0  0  0  0
   23.9230   19.6244   21.9648 O   0  0  0  0  0  0  0  0  0  0  0  0
   25.4961   22.7601   16.8299 C   0  0  0  0  0  0  0  0  0  0  0  0
   23.1454   22.4064   20.5963 C   0  0  0  0  0  0  0  0  0  0  0  0
   19.4358   22.6980   19.9951 C   0  0  0  0  0  0  0  0  0  0  0  0
   25.5706   24.2799   17.2101 C   0  0  0  0  0  0  0  0  0  0  0  0
   20.8832   23.4565   21.7591 C   0  0  0  0  0  0  0  0  0  0  0  0
   18.6996   24.4949   21.1634 O   0  0  0  0  0  0  0  0  0  0  0  0
   23.9839   22.3688   17.0772 C   0  0  0  0  0  0  0  0  0  0  0  0
   23.8399   22.5461   21.8513 O   0  0  0  0  0  0  0  0  0  0  0  0
   24.0092   23.1691   19.5354 C   0  0  0  0  0  0  0  0  0  0  0  0
   20.7971   22.2086   19.6097 C   0  0  0  0  0  0  0  0  0  0  0  0
   20.5021   23.6434   24.1959 N   0  0  0  0  0  0  0  0  0  0  0  0
  1  6  1  0
  1 19  1  0
  1 21  1  0
  2  8  1  0
  2 11  1  0
  2 14  1  0
  3 14  1  0
  3 17  1  0
  3 22  1  0
  4  9  1  0
  5 17  1  0
  5 23  1  0
  6  7  1  0
  6 16  1  0
  8  9  1  0
  8 12  1  0
 10 15  1  0
 10 17  1  0
 10 18  2  0
 11 22  1  0
 13 16  1  0
 13 19  1  0
 14 20  1  0
 14 21  1  0
 15 22  1  0
M  END
$$$$
