
     RDKit          3D

 12 11  0  0  0  0  0  0  0  0999 V2000
   22.2288   22.5744   19.1458 C   0  0  0  0  0  0  0  0  0  0  0  0
   23.3916   24.7672   20.2360 Cl  0  0  0  0  0  0  0  0  0  0  0  0
   21.4692   21.2048   19.3375 C   0  0  0  0  0  0  0  0  0  0  0  0
   22.2010   19.9723   19.9220 C   0  0  0  0  0  0  0  0  0  0  0  0
   21.9310   23.7214   20.2165 C   0  0  0  0  0  0  0  0  0  0  0  0
   20.2061   21.4093   19.9822 O   0  0  0  0  0  0  0  0  0  0  0  0
   21.9001   18.6923   19.6049 O   0  0  0  0  0  0  0  0  0  0  0  0
   20.7852   23.7473   21.4043 C   0  0  0  0  0  0  0  0  0  0  0  0
   22.6711   22.6901   17.4219 C   0  0  0  0  0  0  0  0  0  0  0  0
   19.3732   24.0257   21.5284 O   0  0  0  0  0  0  0  0  0  0  0  0
   21.3458   23.3886   22.5768 O   0  0  0  0  0  0  0  0  0  0  0  0
   22.4916   20.0460   21.4739 C   0  0  0  0  0  0  0  0  0  0  0  0
  1  3  1  0
  1  5  1  0
  1  9  1  0
  2  5  1  0
  3  4  1  0
  3  6  1  0
  4  7  1  0
  4 12  1  0
  5  8  1  0
  8 10  2  0
  8 11  1  0
M  END
$$$$
