
     RDKit          3D

 19 21  0  0  0  0  0  0  0  0999 V2000
   21.6634   21.1460   21.0098 C   0  0  0  0  0  0  0  0  0  0  0  0
   23.3123   24.9837   19.0227 C   0  0  0  0  0  0  0  0  0  0  0  0
   20.3286   23.1001   20.3873 C   0  0  0  0  0  0  0  0  0  0  0  0
   19.6434   23.7970   21.2994 C   0  0  0  0  0  0  0  0  0  0  0  0
   25.1315   23.1340   17.0373 C   0  0  0  0  0  0  0  0  0  0  0  0
   22.5467   21.8012   18.6104 C   0  0  0  0  0  0  0  0  0  0  0  0
   23.0082   22.6065   19.9392 C   0  0  0  0  0  0  0  0  0  0  0  0
   19.6456   23.5029   22.5651 O   0  0  0  0  0  0  0  0  0  0  0  0
   24.9281   22.5735   18.4505 C   0  0  0  0  0  0  0  0  0  0  0  0
   23.0596   20.8148   21.6290 C   0  0  0  0  0  0  0  0  0  0  0  0
   23.9233   21.3180   20.3880 C   0  0  0  0  0  0  0  0  0  0  0  0
   18.5392   24.5879   21.0826 O   0  0  0  0  0  0  0  0  0  0  0  0
   25.9137   24.4481   17.2720 C   0  0  0  0  0  0  0  0  0  0  0  0
   21.7145   22.6085   20.7522 C   0  0  0  0  0  0  0  0  0  0  0  0
   21.2169   21.7735   18.0417 C   0  0  0  0  0  0  0  0  0  0  0  0
   24.0275   23.5830   19.3323 C   0  0  0  0  0  0  0  0  0  0  0  0
   25.2718   21.5182   19.6015 C   0  0  0  0  0  0  0  0  0  0  0  0
   23.1515   20.5266   19.1466 C   0  0  0  0  0  0  0  0  0  0  0  0
   23.3080   19.4468   21.6257 O   0  0  0  0  0  0  0  0  0  0  0  0
  1 10  1  0
  1 14  1  0
  2 16  1  0
  3  4  1  0
  3 14  1  0
  4  8  2  0
  4 12  1  0
  5  9  1  0
  5 13  1  0
  6  7  1  0
  6 15  1  0
  6 18  1  0
  7 11  1  0
  7 14  1  0
  7 16  1  0
  9 16  1  0
  9 17  1  0
 10 11  1  0
 10 19  1  0
 11 17  1  0
 11 18  1  0
M  END
$$$$
