
     RDKit          3D

 23 24  0  0  0  0  0  0  0  0999 V2000
   22.5057   21.6387   21.9849 C   0  0  0  0  0  0  0  0  0  0  0  0
   26.7249   24.2371   17.2176 C   0  0  0  0  0  0  0  0  0  0  0  0
   18.6299   24.5429   21.1223 O   0  0  0  0  0  0  0  0  0  0  0  0
   22.8268   22.5555   19.1791 C   0  0  0  0  0  0  0  0  0  0  0  0
   21.8131   23.8526   16.7930 C   0  0  0  0  0  0  0  0  0  0  0  0
   24.2207   20.9364   20.5590 C   0  0  0  0  0  0  0  0  0  0  0  0
   22.9857   20.4437   22.6478 C   0  0  0  0  0  0  0  0  0  0  0  0
   22.6844   19.0823   20.5931 C   0  0  0  0  0  0  0  0  0  0  0  0
   23.5497   22.3131   16.7357 C   0  0  0  0  0  0  0  0  0  0  0  0
   19.8988   23.9906   21.2878 C   0  0  0  0  0  0  0  0  0  0  0  0
   20.4782   23.0593   20.5003 C   0  0  0  0  0  0  0  0  0  0  0  0
   24.6714   25.3927   17.5339 O   0  0  0  0  0  0  0  0  0  0  0  0
   27.1953   22.9051   17.4931 C   0  0  0  0  0  0  0  0  0  0  0  0
   23.8250   19.6738   21.5022 C   0  0  0  0  0  0  0  0  0  0  0  0
   21.9263   23.1613   20.1154 C   0  0  0  0  0  0  0  0  0  0  0  0
   19.6721   22.3221   19.7750 O   0  0  0  0  0  0  0  0  0  0  0  0
   24.7397   23.0501   16.7904 C   0  0  0  0  0  0  0  0  0  0  0  0
   22.3654   22.6110   17.6964 C   0  0  0  0  0  0  0  0  0  0  0  0
   22.2182   22.6748   22.9611 C   0  0  0  0  0  0  0  0  0  0  0  0
   22.7417   21.6133   20.4568 C   0  0  0  0  0  0  0  0  0  0  0  0
   21.9325   20.3283   19.9949 C   0  0  0  0  0  0  0  0  0  0  0  0
   27.4082   25.2869   17.1540 O   0  0  0  0  0  0  0  0  0  0  0  0
   25.2823   24.3112   17.1530 C   0  0  0  0  0  0  0  0  0  0  0  0
  1  7  1  0
  1 19  1  0
  1 20  1  0
  2 13  1  0
  2 22  2  0
  2 23  1  0
  3 10  1  0
  4 15  1  0
  4 18  1  0
  4 20  1  0
  5 18  1  0
  6 14  1  0
  6 20  1  0
  7 14  1  0
  8 14  1  0
  8 21  1  0
  9 17  1  0
  9 18  1  0
 10 11  1  0
 11 15  2  3
 11 16  1  0
 12 23  1  0
 17 23  2  3
 20 21  1  0
M  END
$$$$
