
     RDKit          3D

 11 10  0  0  0  0  0  0  0  0999 V2000
   20.7685   23.5056   21.9984 S   0  0  0  0  0  0  0  0  0  0  0  0
   19.5630   22.8163   19.9089 C   0  0  0  0  0  0  0  0  0  0  0  0
   23.1002   22.7934   20.2312 C   0  0  0  0  0  0  0  0  0  0  0  0
   23.4536   20.4184   22.0904 S   0  0  0  0  0  0  0  0  0  0  0  0
   21.8703   22.6963   18.0023 C   0  0  0  0  0  0  0  0  0  0  0  0
   20.7109   22.6452   20.7372 C   0  0  0  0  0  0  0  0  0  0  0  0
   22.5431   23.7429   19.0696 C   0  0  0  0  0  0  0  0  0  0  0  0
   22.1940   20.5342   21.0753 C   0  0  0  0  0  0  0  0  0  0  0  0
   21.6983   21.3466   18.7249 C   0  0  0  0  0  0  0  0  0  0  0  0
   22.9278   22.8181   16.7867 C   0  0  0  0  0  0  0  0  0  0  0  0
   21.8447   21.8339   20.3340 N   0  0  0  0  0  0  0  0  0  0  0  0
  1  6  2  0
  2  6  1  0
  3  7  1  0
  3 11  1  0
  4  8  2  0
  5  7  1  0
  5  9  1  0
  5 10  1  0
  6 11  1  0
  8 11  1  0
M  END
$$$$
