
     RDKit          3D

 27 28  0  0  0  0  0  0  0  0999 V2000
   23.7427   26.4217   19.1977 C   0  0  0  0  0  0  0  0  0  0  0  0
   22.1474   24.4969   18.8160 C   0  0  0  0  0  0  0  0  0  0  0  0
   22.2495   27.4021   21.5914 C   0  0  0  0  0  0  0  0  0  0  0  0
   18.3837   24.5008   21.2004 O   0  0  0  0  0  0  0  0  0  0  0  0
   19.8760   20.7720   19.3716 C   0  0  0  0  0  0  0  0  0  0  0  0
   19.8226   23.1818   19.9070 C   0  0  0  0  0  0  0  0  0  0  0  0
   21.9108   21.8257   20.4873 C   0  0  0  0  0  0  0  0  0  0  0  0
   20.3557   21.8110   20.3895 C   0  0  0  0  0  0  0  0  0  0  0  0
   23.1364   28.2773   20.8013 C   0  0  0  0  0  0  0  0  0  0  0  0
   25.3706   21.5340   20.7204 C   0  0  0  0  0  0  0  0  0  0  0  0
   20.5911   25.1700   21.1939 O   0  0  0  0  0  0  0  0  0  0  0  0
   23.0849   23.0359   16.6711 C   0  0  0  0  0  0  0  0  0  0  0  0
   25.4668   23.5532   17.7070 C   0  0  0  0  0  0  0  0  0  0  0  0
   24.4333   22.4179   21.4849 O   0  0  0  0  0  0  0  0  0  0  0  0
   23.5891   21.5360   22.3779 C   0  0  0  0  0  0  0  0  0  0  0  0
   19.9414   23.3247   22.4385 O   0  0  0  0  0  0  0  0  0  0  0  0
   19.6959   24.0949   21.2412 C   0  0  0  0  0  0  0  0  0  0  0  0
   26.3110   21.9978   19.6618 C   0  0  0  0  0  0  0  0  0  0  0  0
   22.4069   20.3852   20.4429 C   0  0  0  0  0  0  0  0  0  0  0  0
   22.4701   23.1220   19.7348 C   0  0  0  0  0  0  0  0  0  0  0  0
   24.8099   20.1465   20.6527 C   0  0  0  0  0  0  0  0  0  0  0  0
   21.3720   19.3248   20.9376 C   0  0  0  0  0  0  0  0  0  0  0  0
   24.1347   24.0859   17.2318 C   0  0  0  0  0  0  0  0  0  0  0  0
   25.7435   22.1609   18.2336 C   0  0  0  0  0  0  0  0  0  0  0  0
   23.5134   20.1898   21.5537 C   0  0  0  0  0  0  0  0  0  0  0  0
   23.5378   25.1229   18.2411 C   0  0  0  0  0  0  0  0  0  0  0  0
   23.6248   27.8245   19.5581 C   0  0  0  0  0  0  0  0  0  0  0  0
  1 26  2  0
  1 27  2  0
  2 20  1  0
  2 26  1  0
  3  9  1  0
  4 17  1  0
  5  8  1  0
  6  8  1  0
  6 17  1  0
  7  8  1  0
  7 19  1  0
  7 20  1  0
  9 27  1  0
 10 14  1  0
 10 18  1  0
 10 21  1  0
 11 17  1  0
 12 23  1  0
 13 23  1  0
 13 24  1  0
 14 15  1  0
 15 25  1  0
 16 17  1  0
 18 24  1  0
 19 22  1  0
 19 25  1  0
 21 25  1  0
 23 26  1  0
M  END
$$$$
