
     RDKit          3D

 16 15  0  0  0  0  0  0  0  0999 V2000
   22.2909   23.0655   20.4110 O   0  0  0  0  0  0  0  0  0  0  0  0
   23.0379   21.1189   22.8900 O   0  0  0  0  0  0  0  0  0  0  0  0
   24.2700   19.4872   21.9732 O   0  0  0  0  0  0  0  0  0  0  0  0
   23.4203   20.3611   21.8933 C   0  0  0  0  0  0  0  0  0  0  0  0
   24.1866   22.1697   17.1365 C   0  0  0  0  0  0  0  0  0  0  0  0
   20.2537   24.0478   21.8609 O   0  0  0  0  0  0  0  0  0  0  0  0
   22.8387   20.9798   19.4879 O   0  0  0  0  0  0  0  0  0  0  0  0
   20.9348   23.4289   20.8489 C   0  0  0  0  0  0  0  0  0  0  0  0
   23.2897   22.9874   18.0790 C   0  0  0  0  0  0  0  0  0  0  0  0
   22.5056   20.3504   20.7089 C   0  0  0  0  0  0  0  0  0  0  0  0
   22.6387   22.3674   19.2521 C   0  0  0  0  0  0  0  0  0  0  0  0
   24.6867   24.6861   17.1501 O   0  0  0  0  0  0  0  0  0  0  0  0
   18.6837   23.1765   20.0419 O   0  0  0  0  0  0  0  0  0  0  0  0
   23.7235   24.4152   18.2024 C   0  0  0  0  0  0  0  0  0  0  0  0
   21.5831   19.1417   20.7266 C   0  0  0  0  0  0  0  0  0  0  0  0
   19.9519   22.6239   20.0593 C   0  0  0  0  0  0  0  0  0  0  0  0
  1  8  1  0
  1 11  1  0
  2  4  2  0
  3  4  1  0
  4 10  1  0
  5  9  1  0
  6  8  2  0
  7 10  1  0
  7 11  1  0
  8 16  1  0
  9 11  1  0
  9 14  1  0
 10 15  1  0
 12 14  1  0
 13 16  1  0
M  END
$$$$
