
     RDKit          3D

 23 24  0  0  0  0  0  0  0  0999 V2000
   21.3806   23.1550   21.0234 N   0  0  0  0  0  0  0  0  0  0  0  0
   20.5919   24.0359   21.7784 C   0  0  0  0  0  0  0  0  0  0  0  0
   22.5220   23.5498   17.9481 C   0  0  0  0  0  0  0  0  0  0  0  0
   20.7135   21.5465   18.7523 C   0  0  0  0  0  0  0  0  0  0  0  0
   23.0491   19.5301   21.0700 C   0  0  0  0  0  0  0  0  0  0  0  0
   23.3937   21.8308   20.3042 C   0  0  0  0  0  0  0  0  0  0  0  0
   24.6258   21.5376   19.4601 C   0  0  0  0  0  0  0  0  0  0  0  0
   20.4829   19.4612   20.0002 C   0  0  0  0  0  0  0  0  0  0  0  0
   23.5827   25.3430   19.1616 C   0  0  0  0  0  0  0  0  0  0  0  0
   22.5326   24.3111   16.7778 C   0  0  0  0  0  0  0  0  0  0  0  0
   21.0014   24.6220   22.8419 O   0  0  0  0  0  0  0  0  0  0  0  0
   20.9741   18.3565   20.6892 N   0  0  0  0  0  0  0  0  0  0  0  0
   22.2346   18.4081   21.2192 C   0  0  0  0  0  0  0  0  0  0  0  0
   23.6178   23.8637   21.6349 O   0  0  0  0  0  0  0  0  0  0  0  0
   22.8044   23.2441   20.5586 C   0  0  0  0  0  0  0  0  0  0  0  0
   22.9927   24.0594   19.1787 C   0  0  0  0  0  0  0  0  0  0  0  0
   22.5260   20.6371   20.4132 C   0  0  0  0  0  0  0  0  0  0  0  0
   23.0523   25.6266   16.8112 C   0  0  0  0  0  0  0  0  0  0  0  0
   25.6999   22.3104   19.3054 O   0  0  0  0  0  0  0  0  0  0  0  0
   21.2900   20.5460   19.7855 C   0  0  0  0  0  0  0  0  0  0  0  0
   19.3475   24.1508   21.4112 O   0  0  0  0  0  0  0  0  0  0  0  0
   24.2880   27.4959   18.0338 Cl  0  0  0  0  0  0  0  0  0  0  0  0
   23.6057   26.1034   18.0170 C   0  0  0  0  0  0  0  0  0  0  0  0
  1  2  1  0
  1 15  1  0
  2 11  2  0
  2 21  1  0
  3 10  2  0
  3 16  1  0
  4 20  1  0
  5 13  2  0
  5 17  1  0
  6  7  1  0
  6 15  1  0
  6 17  1  0
  7 19  1  0
  8 12  2  0
  8 20  1  0
  9 16  1  0
  9 23  2  0
 10 18  1  0
 12 13  1  0
 14 15  1  0
 15 16  1  0
 17 20  2  0
 18 23  1  0
 22 23  1  0
M  END
$$$$
