
     RDKit          3D

 33 37  0  0  0  0  0  0  0  0999 V2000
   25.3079   35.2463  102.5808 C   0  0  0  0  0  0  0  0  0  0  0  0
   25.8191   36.3086  101.6512 C   0  0  0  0  0  0  0  0  0  0  0  0
   26.1552   35.0956  103.7393 N   0  0  0  0  0  0  0  0  0  0  0  0
   24.4739   36.2973   99.7271 C   0  0  0  0  0  0  0  0  0  0  0  0
   22.4569   34.8808  106.4836 C   0  0  0  0  0  0  0  0  0  0  0  0
   24.5008   34.5758  108.9197 O   0  0  0  0  0  0  0  0  0  0  0  0
   27.5700   35.1511  103.5439 C   0  0  0  0  0  0  0  0  0  0  0  0
   25.9814   35.2239   98.1461 O   0  0  0  0  0  0  0  0  0  0  0  0
   29.5795   34.0753  103.1663 C   0  0  0  0  0  0  0  0  0  0  0  0
   28.2146   33.9783  103.1713 C   0  0  0  0  0  0  0  0  0  0  0  0
   32.2255   33.8892  103.8240 N   0  0  0  0  0  0  0  0  0  0  0  0
   24.4974   36.8421  101.0839 C   0  0  0  0  0  0  0  0  0  0  0  0
   32.5635   33.4085  101.5761 O   0  0  0  0  0  0  0  0  0  0  0  0
   29.5646   36.3159  103.9194 C   0  0  0  0  0  0  0  0  0  0  0  0
   30.2238   37.3774  103.9749 O   0  0  0  0  0  0  0  0  0  0  0  0
   31.8483   35.0397  105.9219 C   0  0  0  0  0  0  0  0  0  0  0  0
   26.5504   35.6622  100.5164 O   0  0  0  0  0  0  0  0  0  0  0  0
   24.5789   33.9334  105.4296 C   0  0  0  0  0  0  0  0  0  0  0  0
   30.3959   33.1993  102.4871 C   0  0  0  0  0  0  0  0  0  0  0  0
   23.4215   34.8995  105.2915 C   0  0  0  0  0  0  0  0  0  0  0  0
   25.7605   33.9997  104.5938 C   0  0  0  0  0  0  0  0  0  0  0  0
   27.3949   34.7802   98.1017 C   0  0  0  0  0  0  0  0  0  0  0  0
   25.2329   33.9169  106.8119 C   0  0  0  0  0  0  0  0  0  0  0  0
   23.3480   35.9858   99.1606 O   0  0  0  0  0  0  0  0  0  0  0  0
   22.8206   33.6303  107.3910 C   0  0  0  0  0  0  0  0  0  0  0  0
   25.6967   35.6788   99.3911 C   0  0  0  0  0  0  0  0  0  0  0  0
   24.2686   33.7981  107.8888 C   0  0  0  0  0  0  0  0  0  0  0  0
   31.4730   34.7085  104.5474 C   0  0  0  0  0  0  0  0  0  0  0  0
   23.8501   32.5433  105.3150 C   0  0  0  0  0  0  0  0  0  0  0  0
   31.7582   33.4083  102.6311 C   0  0  0  0  0  0  0  0  0  0  0  0
   22.7934   32.5118  106.3472 O   0  0  0  0  0  0  0  0  0  0  0  0
   28.2052   36.3064  103.7776 N   0  0  0  0  0  0  0  0  0  0  0  0
   30.2293   35.0658  103.9305 C   0  0  0  0  0  0  0  0  0  0  0  0
  1  2  1  0
  1  3  1  0
  2 12  1  0
  2 17  1  0
  3  7  1  0
  3 21  1  0
  4 12  1  0
  4 24  1  0
  4 26  1  0
  5 20  1  0
  5 25  1  0
  6 27  1  0
  7 10  1  0
  7 32  2  0
  8 22  1  0
  8 26  1  0
  9 10  1  0
  9 19  2  0
  9 33  1  0
 11 28  2  0
 11 30  1  0
 13 30  2  0
 14 15  2  0
 14 32  1  0
 14 33  1  0
 16 28  1  0
 17 26  1  0
 18 20  1  0
 18 21  1  0
 18 23  1  0
 18 29  1  0
 19 30  1  0
 23 27  1  0
 25 27  1  0
 25 31  1  0
 28 33  1  0
 29 31  1  0
M  END
$$$$
