
     RDKit          3D

 20 19  0  0  0  0  0  0  0  0999 V2000
   26.4293   36.6302  100.9472 C   0  0  0  0  0  0  0  0  0  0  0  0
   24.1061   36.1421  100.2243 C   0  0  0  0  0  0  0  0  0  0  0  0
   29.8095   35.6174  103.6735 C   0  0  0  0  0  0  0  0  0  0  0  0
   31.7780   34.0918  103.0447 C   0  0  0  0  0  0  0  0  0  0  0  0
   29.3854   33.9348  105.5284 C   0  0  0  0  0  0  0  0  0  0  0  0
   25.1881   35.8264  101.0336 C   0  0  0  0  0  0  0  0  0  0  0  0
   28.8322   34.8406  104.4327 C   0  0  0  0  0  0  0  0  0  0  0  0
   25.6977   34.3992  107.1859 C   0  0  0  0  0  0  0  0  0  0  0  0
   27.4594   35.3728  104.5349 C   0  0  0  0  0  0  0  0  0  0  0  0
   26.5669   35.2016  103.2272 C   0  0  0  0  0  0  0  0  0  0  0  0
   26.2693   34.3240  104.6392 C   0  0  0  0  0  0  0  0  0  0  0  0
   25.3573   34.7746  105.8072 C   0  0  0  0  0  0  0  0  0  0  0  0
   25.0068   34.8507  108.1346 O   0  0  0  0  0  0  0  0  0  0  0  0
   25.0139   35.1356  102.4370 C   0  0  0  0  0  0  0  0  0  0  0  0
   24.4231   35.7603  105.5472 O   0  0  0  0  0  0  0  0  0  0  0  0
   32.4711   33.5994  104.1593 N   0  0  0  0  0  0  0  0  0  0  0  0
   30.8454   35.0081  103.1281 N   0  0  0  0  0  0  0  0  0  0  0  0
   26.6313   33.5475  107.3785 O   0  0  0  0  0  0  0  0  0  0  0  0
   32.3454   33.7300  101.9221 O   0  0  0  0  0  0  0  0  0  0  0  0
   29.6666   36.8701  103.6086 O   0  0  0  0  0  0  0  0  0  0  0  0
  1  6  1  0
  2  6  1  0
  3  7  1  0
  3 17  1  0
  3 20  2  0
  4 16  1  0
  4 17  1  0
  4 19  2  0
  5  7  1  0
  6 14  1  0
  7  9  1  0
  8 12  1  0
  8 13  2  0
  8 18  1  0
  9 10  1  0
  9 11  1  0
 10 14  1  0
 11 12  1  0
 12 15  1  0
M  END
$$$$
