
     RDKit          3D

 32 35  0  0  0  0  0  0  0  0999 V2000
  101.2869    9.7813  -91.1583 C   0  0  0  0  0  0  0  0  0  0  0  0
   99.2578   10.9752  -91.2237 O   0  0  0  0  0  0  0  0  0  0  0  0
  100.7566    5.1860  -92.9565 C   0  0  0  0  0  0  0  0  0  0  0  0
  105.9814    7.0620  -92.0690 O   0  0  0  0  0  0  0  0  0  0  0  0
  106.0106    3.5415  -91.7968 C   0  0  0  0  0  0  0  0  0  0  0  0
  103.0385    2.3136  -90.7040 O   0  0  0  0  0  0  0  0  0  0  0  0
   99.0248    6.2875  -90.8263 C   0  0  0  0  0  0  0  0  0  0  0  0
  100.2398    2.8964  -92.6855 O   0  0  0  0  0  0  0  0  0  0  0  0
   99.0798    4.9397  -91.2898 O   0  0  0  0  0  0  0  0  0  0  0  0
   99.3073    8.5435  -90.7308 C   0  0  0  0  0  0  0  0  0  0  0  0
   97.9073   11.1982  -90.9447 C   0  0  0  0  0  0  0  0  0  0  0  0
  101.4444    2.9240  -93.5283 C   0  0  0  0  0  0  0  0  0  0  0  0
  105.8413    4.8545  -91.1512 C   0  0  0  0  0  0  0  0  0  0  0  0
   99.9886    7.3090  -90.9135 C   0  0  0  0  0  0  0  0  0  0  0  0
  102.3422    9.0364  -91.2083 C   0  0  0  0  0  0  0  0  0  0  0  0
   97.9835    8.2513  -90.4004 C   0  0  0  0  0  0  0  0  0  0  0  0
  103.8680    6.8326  -90.8673 C   0  0  0  0  0  0  0  0  0  0  0  0
  101.5223    4.3635  -94.0108 C   0  0  0  0  0  0  0  0  0  0  0  0
  106.7960    5.0205  -90.1457 O   0  0  0  0  0  0  0  0  0  0  0  0
  105.1411    6.1412  -91.5046 C   0  0  0  0  0  0  0  0  0  0  0  0
  107.2211    3.3909  -92.2390 O   0  0  0  0  0  0  0  0  0  0  0  0
  102.6473    0.3787  -92.1579 O   0  0  0  0  0  0  0  0  0  0  0  0
   99.7477    4.2381  -92.3371 C   0  0  0  0  0  0  0  0  0  0  0  0
   97.7967    6.8161  -90.4362 C   0  0  0  0  0  0  0  0  0  0  0  0
  101.6594    5.6165  -91.8535 C   0  0  0  0  0  0  0  0  0  0  0  0
  103.6388    5.8783  -89.6804 O   0  0  0  0  0  0  0  0  0  0  0  0
  105.2036    2.2555  -91.9306 O   0  0  0  0  0  0  0  0  0  0  0  0
   99.9103    9.7924  -91.0097 C   0  0  0  0  0  0  0  0  0  0  0  0
  103.4532    1.8008  -91.9318 P   0  0  0  0  0  0  0  0  0  0  0  0
  101.3008    6.9388  -91.1908 N   0  0  0  0  0  0  0  0  0  0  0  0
  102.9266    2.6034  -93.2174 O   0  0  0  0  0  0  0  0  0  0  0  0
  102.5347    7.6756  -91.0293 C   0  0  0  0  0  0  0  0  0  0  0  0
  1 15  2  0
  1 28  1  0
  2 11  1  0
  2 28  1  0
  3 18  1  0
  3 23  1  0
  3 25  1  0
  4 20  1  0
  5 13  1  0
  5 21  2  0
  5 27  1  0
  6 29  1  0
  7  9  1  0
  7 14  1  0
  7 24  1  0
  8 12  1  0
  8 23  1  0
  9 23  1  0
 10 14  2  0
 10 16  1  0
 10 28  1  0
 12 18  1  0
 12 31  1  0
 13 19  1  0
 13 20  1  0
 14 30  1  0
 15 32  1  0
 16 24  1  0
 17 20  1  0
 17 26  1  0
 17 32  1  0
 22 29  1  0
 25 30  1  0
 29 31  1  0
 30 32  1  0
M  END
$$$$
