
     RDKit          3D

 26 28  0  0  0  0  0  0  0  0999 V2000
   98.6273    7.1792  -90.4118 N   0  0  0  0  0  0  0  0  0  0  0  0
  101.9846    8.0177  -91.1895 O   0  0  0  0  0  0  0  0  0  0  0  0
   97.8787   12.0053  -91.1136 C   0  0  0  0  0  0  0  0  0  0  0  0
   99.9475    4.5110  -89.5591 O   0  0  0  0  0  0  0  0  0  0  0  0
  105.0740    3.9837  -91.6751 C   0  0  0  0  0  0  0  0  0  0  0  0
   97.7046    9.5921  -90.5118 N   0  0  0  0  0  0  0  0  0  0  0  0
  101.6923    3.6087  -91.5540 O   0  0  0  0  0  0  0  0  0  0  0  0
  100.7697    3.0534  -87.7861 O   0  0  0  0  0  0  0  0  0  0  0  0
   99.9540    6.8027  -90.6550 N   0  0  0  0  0  0  0  0  0  0  0  0
  100.5061    4.5030  -91.8589 C   0  0  0  0  0  0  0  0  0  0  0  0
   99.8484    9.0297  -90.8700 C   0  0  0  0  0  0  0  0  0  0  0  0
  100.7082    7.9247  -90.9283 C   0  0  0  0  0  0  0  0  0  0  0  0
  100.8176    4.5148  -88.1482 P   0  0  0  0  0  0  0  0  0  0  0  0
  104.0522    4.2853  -92.4936 N   0  0  0  0  0  0  0  0  0  0  0  0
   99.7383   10.3752  -91.0921 N   0  0  0  0  0  0  0  0  0  0  0  0
  105.3110    4.6418  -90.6547 O   0  0  0  0  0  0  0  0  0  0  0  0
  105.7828    2.7185  -92.0354 C   0  0  0  0  0  0  0  0  0  0  0  0
  100.7958    5.1240  -93.1552 C   0  0  0  0  0  0  0  0  0  0  0  0
  100.1457    5.3045  -87.0024 O   0  0  0  0  0  0  0  0  0  0  0  0
   98.5618    8.5395  -90.5193 C   0  0  0  0  0  0  0  0  0  0  0  0
  102.3152    5.3985  -88.4969 C   0  0  0  0  0  0  0  0  0  0  0  0
  105.7306    2.4224  -93.4077 O   0  0  0  0  0  0  0  0  0  0  0  0
  102.7089    3.7601  -92.5498 C   0  0  0  0  0  0  0  0  0  0  0  0
  101.8638    4.2054  -93.7731 C   0  0  0  0  0  0  0  0  0  0  0  0
  100.3275    5.4062  -90.6524 C   0  0  0  0  0  0  0  0  0  0  0  0
   98.4445   10.7051  -90.9014 C   0  0  0  0  0  0  0  0  0  0  0  0
  1  9  1  0
  1 20  1  0
  2 12  2  0
  3 26  1  0
  4 13  1  0
  4 25  1  0
  5 14  1  0
  5 16  2  0
  5 17  1  0
  6 20  1  0
  6 26  2  0
  7 10  1  0
  7 23  1  0
  8 13  1  0
  9 12  1  0
  9 25  1  0
 10 18  1  0
 10 25  1  0
 11 12  1  0
 11 15  1  0
 11 20  2  0
 13 19  1  0
 13 21  1  0
 14 23  1  0
 15 26  1  0
 17 22  1  0
 18 24  1  0
 23 24  1  0
M  END
$$$$
