
     RDKit          3D

 18 18  0  0  0  0  0  0  0  0999 V2000
  101.5490    5.3047  -91.9293 C   0  0  0  0  0  0  0  0  0  0  0  0
   99.7548    4.1916  -89.6939 O   0  0  0  0  0  0  0  0  0  0  0  0
   99.3625    8.0275  -90.4124 C   0  0  0  0  0  0  0  0  0  0  0  0
  100.7675    4.2277  -92.8273 C   0  0  0  0  0  0  0  0  0  0  0  0
  103.9223    2.6589  -91.8076 C   0  0  0  0  0  0  0  0  0  0  0  0
  106.2417    3.1230  -91.4403 C   0  0  0  0  0  0  0  0  0  0  0  0
   98.5135   10.0546  -91.5105 C   0  0  0  0  0  0  0  0  0  0  0  0
  107.4850    3.1010  -91.7644 O   0  0  0  0  0  0  0  0  0  0  0  0
  102.9777    5.1032  -91.8370 N   0  0  0  0  0  0  0  0  0  0  0  0
  102.0721    8.1937  -91.0582 N   0  0  0  0  0  0  0  0  0  0  0  0
   98.9865   11.4898  -91.6877 C   0  0  0  0  0  0  0  0  0  0  0  0
  105.3141    2.0167  -91.7771 C   0  0  0  0  0  0  0  0  0  0  0  0
  100.7006    6.0154  -90.9576 N   0  0  0  0  0  0  0  0  0  0  0  0
   99.5490    5.3774  -90.3846 C   0  0  0  0  0  0  0  0  0  0  0  0
  105.4939    4.4442  -91.6514 C   0  0  0  0  0  0  0  0  0  0  0  0
  104.0624    4.1225  -91.8887 C   0  0  0  0  0  0  0  0  0  0  0  0
   99.0637    9.3729  -90.3839 C   0  0  0  0  0  0  0  0  0  0  0  0
  100.6599    7.4513  -90.7593 C   0  0  0  0  0  0  0  0  0  0  0  0
  1  4  1  0
  1  9  1  0
  1 13  1  0
  2 14  1  0
  3 17  1  0
  3 18  1  0
  5 12  1  0
  5 16  1  0
  6  8  2  0
  6 12  1  0
  6 15  1  0
  7 11  1  0
  7 17  1  0
  9 16  2  3
 10 18  2  0
 13 14  1  0
 13 18  1  0
 15 16  1  0
M  END
$$$$
