
     RDKit          3D

 35 39  0  0  0  0  0  0  0  0999 V2000
  101.1859    9.2605  -91.1199 C   0  0  0  0  0  0  0  0  0  0  0  0
   99.3531   11.1654  -91.2484 N   0  0  0  0  0  0  0  0  0  0  0  0
   99.1230    6.3829  -90.8337 C   0  0  0  0  0  0  0  0  0  0  0  0
   99.6871    5.7070  -91.9328 C   0  0  0  0  0  0  0  0  0  0  0  0
   98.6049    3.7010  -91.4610 C   0  0  0  0  0  0  0  0  0  0  0  0
  103.9667    5.9145  -89.2132 C   0  0  0  0  0  0  0  0  0  0  0  0
  101.8634    3.1812  -93.2693 C   0  0  0  0  0  0  0  0  0  0  0  0
  102.2973    9.7007  -91.2483 O   0  0  0  0  0  0  0  0  0  0  0  0
   99.4789    7.7449  -90.5152 C   0  0  0  0  0  0  0  0  0  0  0  0
   99.9236    9.9611  -91.0536 C   0  0  0  0  0  0  0  0  0  0  0  0
   98.9576    9.0296  -90.7063 C   0  0  0  0  0  0  0  0  0  0  0  0
  103.0279    3.5272  -92.5484 C   0  0  0  0  0  0  0  0  0  0  0  0
   97.7925    9.6515  -90.6234 N   0  0  0  0  0  0  0  0  0  0  0  0
  102.6844    6.3235  -89.5391 C   0  0  0  0  0  0  0  0  0  0  0  0
   97.9755    4.2576  -90.3712 C   0  0  0  0  0  0  0  0  0  0  0  0
  104.3179    5.5999  -91.6139 C   0  0  0  0  0  0  0  0  0  0  0  0
  105.1605    2.7874  -92.0302 O   0  0  0  0  0  0  0  0  0  0  0  0
  103.1002    1.5608  -94.5533 C   0  0  0  0  0  0  0  0  0  0  0  0
  105.7460    6.2459  -87.6922 O   0  0  0  0  0  0  0  0  0  0  0  0
  103.1599    0.6892  -95.4691 O   0  0  0  0  0  0  0  0  0  0  0  0
  103.1242    4.1588  -90.2289 O   0  0  0  0  0  0  0  0  0  0  0  0
  105.4054    7.3732  -90.4395 O   0  0  0  0  0  0  0  0  0  0  0  0
  102.0921    7.0323  -90.6977 C   0  0  0  0  0  0  0  0  0  0  0  0
   98.0240   11.0162  -90.9904 O   0  0  0  0  0  0  0  0  0  0  0  0
  101.9428    2.2378  -94.2889 N   0  0  0  0  0  0  0  0  0  0  0  0
  104.1806    1.7762  -93.7845 N   0  0  0  0  0  0  0  0  0  0  0  0
  104.9436    6.0385  -90.3011 C   0  0  0  0  0  0  0  0  0  0  0  0
  103.2020    4.6283  -91.5311 C   0  0  0  0  0  0  0  0  0  0  0  0
  104.1714    2.7077  -92.7699 C   0  0  0  0  0  0  0  0  0  0  0  0
  104.4521    6.1346  -87.8254 C   0  0  0  0  0  0  0  0  0  0  0  0
  103.7052    5.6255  -86.8855 O   0  0  0  0  0  0  0  0  0  0  0  0
   98.2480    5.5992  -90.0400 C   0  0  0  0  0  0  0  0  0  0  0  0
  100.5026    3.6807  -93.0320 N   0  0  0  0  0  0  0  0  0  0  0  0
  100.9606    7.9128  -90.7584 N   0  0  0  0  0  0  0  0  0  0  0  0
   99.5788    4.3383  -92.1643 C   0  0  0  0  0  0  0  0  0  0  0  0
  1  8  2  0
  1 10  1  0
  1 34  1  0
  2 10  1  0
  2 24  1  0
  3  4  2  0
  3  9  1  0
  3 32  1  0
  4 35  1  0
  5 15  2  0
  5 35  1  0
  6 14  1  0
  6 27  1  0
  6 30  1  0
  7 12  1  0
  7 25  2  0
  7 33  1  0
  9 11  1  0
  9 34  1  0
 10 11  2  0
 11 13  1  0
 12 28  1  0
 12 29  1  0
 13 24  1  0
 14 23  1  0
 15 32  1  0
 16 27  1  0
 16 28  1  0
 17 29  2  0
 18 20  2  0
 18 25  1  0
 18 26  1  0
 19 30  2  0
 21 28  1  0
 22 27  1  0
 23 34  1  0
 26 29  1  0
 30 31  1  0
 33 35  1  0
M  END
$$$$
