
     RDKit          3D

 25 24  0  0  0  0  0  0  0  0999 V2000
   99.8682    7.2687  -90.7009 C   0  0  0  0  0  0  0  0  0  0  0  0
  101.3379    3.7555  -93.3890 C   0  0  0  0  0  0  0  0  0  0  0  0
  101.8482    4.1438  -89.9509 C   0  0  0  0  0  0  0  0  0  0  0  0
  105.6335    2.2047  -93.6517 O   0  0  0  0  0  0  0  0  0  0  0  0
   98.5811    7.8686  -90.1154 C   0  0  0  0  0  0  0  0  0  0  0  0
  102.8188    3.4940  -93.1191 C   0  0  0  0  0  0  0  0  0  0  0  0
   99.8702    9.5818  -91.0630 O   0  0  0  0  0  0  0  0  0  0  0  0
  101.0066    4.9619  -90.9931 C   0  0  0  0  0  0  0  0  0  0  0  0
   99.5784   10.8912  -91.4529 C   0  0  0  0  0  0  0  0  0  0  0  0
  104.3790    6.4237  -90.5209 C   0  0  0  0  0  0  0  0  0  0  0  0
  104.4106    1.7533  -93.8962 C   0  0  0  0  0  0  0  0  0  0  0  0
   98.8215    5.1696  -89.7146 C   0  0  0  0  0  0  0  0  0  0  0  0
  103.4214    2.1849  -92.9290 C   0  0  0  0  0  0  0  0  0  0  0  0
  103.1045    1.1290  -91.9683 C   0  0  0  0  0  0  0  0  0  0  0  0
  100.8785    5.0637  -92.5563 C   0  0  0  0  0  0  0  0  0  0  0  0
  100.6899    8.4106  -91.0555 C   0  0  0  0  0  0  0  0  0  0  0  0
  104.4312    5.1690  -91.4301 C   0  0  0  0  0  0  0  0  0  0  0  0
  105.7841    8.2591  -90.1348 O   0  0  0  0  0  0  0  0  0  0  0  0
  100.1251    5.8663  -90.1949 C   0  0  0  0  0  0  0  0  0  0  0  0
  105.4863    7.3518  -90.9224 C   0  0  0  0  0  0  0  0  0  0  0  0
  106.1077    7.0127  -92.0326 O   0  0  0  0  0  0  0  0  0  0  0  0
  101.8995    8.4122  -91.2014 O   0  0  0  0  0  0  0  0  0  0  0  0
  103.4768    4.5827  -92.4608 N   0  0  0  0  0  0  0  0  0  0  0  0
   98.4303    9.1576  -90.9259 C   0  0  0  0  0  0  0  0  0  0  0  0
   98.7354    3.7820  -90.1339 O   0  0  0  0  0  0  0  0  0  0  0  0
  1  5  1  0
  1 16  1  0
  1 19  1  0
  2  6  1  0
  2 15  1  0
  3  8  1  0
  4 11  1  0
  5 24  1  0
  6 13  1  0
  6 23  1  0
  7  9  1  0
  7 16  1  0
  8 15  1  0
  8 19  1  0
 10 17  1  0
 10 20  1  0
 11 13  1  0
 12 19  1  0
 12 25  1  0
 13 14  1  0
 16 22  2  0
 17 23  1  0
 18 20  2  0
 20 21  1  0
M  END
$$$$
