
     RDKit          3D

 35 37  0  0  0  0  0  0  0  0999 V2000
  106.6107    6.3033  -91.4785 C   0  0  0  0  0  0  0  0  0  0  0  0
   98.6129    4.0887  -86.9510 O   0  0  0  0  0  0  0  0  0  0  0  0
  100.5497    6.5712  -90.3613 N   0  0  0  0  0  0  0  0  0  0  0  0
   97.3767    8.4714  -90.0345 C   0  0  0  0  0  0  0  0  0  0  0  0
  108.0200    8.9349  -92.5668 C   0  0  0  0  0  0  0  0  0  0  0  0
   99.5825    7.6325  -90.4010 C   0  0  0  0  0  0  0  0  0  0  0  0
   99.9976    5.2335  -92.6833 S   0  0  0  0  0  0  0  0  0  0  0  0
  105.7072    7.5508  -91.2238 C   0  0  0  0  0  0  0  0  0  0  0  0
  106.7185    4.7868  -91.6490 C   0  0  0  0  0  0  0  0  0  0  0  0
  104.4151    4.2001  -91.3657 C   0  0  0  0  0  0  0  0  0  0  0  0
  100.2513    2.6368  -87.4309 O   0  0  0  0  0  0  0  0  0  0  0  0
   99.7968    3.7630  -87.3589 C   0  0  0  0  0  0  0  0  0  0  0  0
  107.4904    4.2667  -92.4704 O   0  0  0  0  0  0  0  0  0  0  0  0
   97.7844    9.6991  -90.4940 N   0  0  0  0  0  0  0  0  0  0  0  0
  104.0987    1.8817  -94.0107 O   0  0  0  0  0  0  0  0  0  0  0  0
  101.2696    4.9674  -93.7758 C   0  0  0  0  0  0  0  0  0  0  0  0
  105.7681    4.1968  -90.9037 O   0  0  0  0  0  0  0  0  0  0  0  0
  103.1992    2.1324  -90.8947 O   0  0  0  0  0  0  0  0  0  0  0  0
  103.9764    2.8619  -91.8560 C   0  0  0  0  0  0  0  0  0  0  0  0
  101.2875    3.4940  -94.1458 C   0  0  0  0  0  0  0  0  0  0  0  0
   99.4247   11.2605  -91.2557 C   0  0  0  0  0  0  0  0  0  0  0  0
  100.0076    8.8656  -90.8172 C   0  0  0  0  0  0  0  0  0  0  0  0
  101.3686    9.0276  -91.1889 O   0  0  0  0  0  0  0  0  0  0  0  0
  107.9495    6.8532  -91.9567 C   0  0  0  0  0  0  0  0  0  0  0  0
  103.8017    0.7766  -90.7568 C   0  0  0  0  0  0  0  0  0  0  0  0
   99.0959    9.9303  -90.8754 C   0  0  0  0  0  0  0  0  0  0  0  0
   98.2614    7.4339  -89.9940 C   0  0  0  0  0  0  0  0  0  0  0  0
  103.3963    2.6837  -93.1961 C   0  0  0  0  0  0  0  0  0  0  0  0
  101.9009    2.5040  -93.2130 C   0  0  0  0  0  0  0  0  0  0  0  0
  100.6388    4.9538  -87.8230 C   0  0  0  0  0  0  0  0  0  0  0  0
  100.7589    5.4240  -91.2298 C   0  0  0  0  0  0  0  0  0  0  0  0
  100.1529    4.3705  -90.1278 C   0  0  0  0  0  0  0  0  0  0  0  0
  108.3181    8.1216  -91.3127 C   0  0  0  0  0  0  0  0  0  0  0  0
  107.6367    7.6483  -93.2020 C   0  0  0  0  0  0  0  0  0  0  0  0
  100.0167    5.6159  -89.1199 C   0  0  0  0  0  0  0  0  0  0  0  0
  1  8  1  0
  1  9  1  0
  1 24  1  0
  2 12  2  0
  3  6  1  0
  3 31  1  0
  3 35  1  0
  4 14  1  0
  4 27  2  0
  5 33  1  0
  5 34  1  0
  6 22  2  0
  6 27  1  0
  7 16  1  0
  7 31  1  0
  9 13  2  0
  9 17  1  0
 10 17  1  0
 10 19  1  0
 11 12  1  0
 12 30  1  0
 14 26  2  0
 15 28  1  0
 16 20  1  0
 18 19  1  0
 18 25  1  0
 19 28  1  0
 20 29  1  0
 21 26  1  0
 22 23  1  0
 22 26  1  0
 24 33  1  0
 24 34  1  0
 28 29  1  0
 30 35  1  0
 31 32  1  0
 32 35  1  0
M  END
$$$$
