
     RDKit          3D

 21 21  0  0  0  0  0  0  0  0999 V2000
  102.5426    4.3723  -91.8231 C   0  0  0  0  0  0  0  0  0  0  0  0
  100.8582    9.6163  -91.2208 C   0  0  0  0  0  0  0  0  0  0  0  0
   98.4963    9.1088  -91.1174 C   0  0  0  0  0  0  0  0  0  0  0  0
  103.7464    4.2152  -92.6365 C   0  0  0  0  0  0  0  0  0  0  0  0
   99.2293   11.4744  -90.8680 C   0  0  0  0  0  0  0  0  0  0  0  0
  106.1591    2.1703  -90.8038 N   0  0  0  0  0  0  0  0  0  0  0  0
   99.5388   10.0340  -91.0789 C   0  0  0  0  0  0  0  0  0  0  0  0
  100.1130    7.3061  -91.3097 C   0  0  0  0  0  0  0  0  0  0  0  0
  105.0133    2.3075  -91.4719 C   0  0  0  0  0  0  0  0  0  0  0  0
  102.7809    1.3415  -91.9371 O   0  0  0  0  0  0  0  0  0  0  0  0
  104.9628    3.6644  -92.1073 C   0  0  0  0  0  0  0  0  0  0  0  0
  101.1493    8.2669  -91.3647 C   0  0  0  0  0  0  0  0  0  0  0  0
  103.9387    0.4430  -90.3798 O   0  0  0  0  0  0  0  0  0  0  0  0
   99.4332    4.7887  -91.4796 C   0  0  0  0  0  0  0  0  0  0  0  0
  106.1166    3.8667  -92.7555 O   0  0  0  0  0  0  0  0  0  0  0  0
   98.8013    7.7619  -91.2336 C   0  0  0  0  0  0  0  0  0  0  0  0
   99.8992    3.6434  -92.3935 C   0  0  0  0  0  0  0  0  0  0  0  0
  100.5098    5.8430  -91.2861 C   0  0  0  0  0  0  0  0  0  0  0  0
   97.9050    5.0774  -91.7754 C   0  0  0  0  0  0  0  0  0  0  0  0
  101.9045    5.7069  -91.9092 C   0  0  0  0  0  0  0  0  0  0  0  0
  103.9185    1.3860  -91.2536 C   0  0  0  0  0  0  0  0  0  0  0  0
  1  4  1  0
  1 20  1  0
  2  7  1  0
  2 12  2  0
  3  7  1  0
  3 16  2  0
  4 11  1  0
  5  7  1  0
  6  9  1  0
  8 12  1  0
  8 16  1  0
  8 18  1  0
  9 11  1  0
  9 21  1  0
 10 21  2  0
 11 15  1  0
 13 21  1  0
 14 17  1  0
 14 18  1  0
 14 19  1  0
 18 20  1  0
M  END
$$$$
