
     RDKit          3D

 24 25  0  0  0  0  0  0  0  0999 V2000
   21.3939   18.1653   20.8924 O   0  0  0  0  0  0  0  0  0  0  0  0
   22.0498   19.2829   20.5057 C   0  0  0  0  0  0  0  0  0  0  0  0
   23.2453   26.2691   20.2865 C   0  0  0  0  0  0  0  0  0  0  0  0
   22.6956   22.4455   17.1087 C   0  0  0  0  0  0  0  0  0  0  0  0
   22.6340   23.7897   19.1217 C   0  0  0  0  0  0  0  0  0  0  0  0
   23.6053   21.2812   22.1135 C   0  0  0  0  0  0  0  0  0  0  0  0
   23.5760   19.2821   20.6076 C   0  0  0  0  0  0  0  0  0  0  0  0
   23.9214   24.4915   17.1601 C   0  0  0  0  0  0  0  0  0  0  0  0
   23.9883   19.8644   21.9178 C   0  0  0  0  0  0  0  0  0  0  0  0
   21.6124   20.5441   21.0650 O   0  0  0  0  0  0  0  0  0  0  0  0
   21.9627   22.9213   22.7800 O   0  0  0  0  0  0  0  0  0  0  0  0
   22.6762   21.6195   20.9108 C   0  0  0  0  0  0  0  0  0  0  0  0
   21.9355   22.9294   21.3219 C   0  0  0  0  0  0  0  0  0  0  0  0
   18.1306   24.3674   20.8910 O   0  0  0  0  0  0  0  0  0  0  0  0
   22.2491   22.6824   18.3832 C   0  0  0  0  0  0  0  0  0  0  0  0
   19.4621   22.6107   20.5057 O   0  0  0  0  0  0  0  0  0  0  0  0
   19.2919   23.8154   21.1954 C   0  0  0  0  0  0  0  0  0  0  0  0
   24.0828   18.1214   19.9826 O   0  0  0  0  0  0  0  0  0  0  0  0
   19.9313   24.3925   22.2510 O   0  0  0  0  0  0  0  0  0  0  0  0
   23.5742   23.3506   16.4940 C   0  0  0  0  0  0  0  0  0  0  0  0
   22.3766   24.0617   20.4521 C   0  0  0  0  0  0  0  0  0  0  0  0
   23.4062   24.7841   18.4355 C   0  0  0  0  0  0  0  0  0  0  0  0
   22.6349   25.2548   20.9900 C   0  0  0  0  0  0  0  0  0  0  0  0
   23.6493   25.9991   19.0039 C   0  0  0  0  0  0  0  0  0  0  0  0
  1  2  1  0
  2  7  1  0
  2 10  1  0
  3 23  1  0
  3 24  1  0
  4 15  2  0
  4 20  1  0
  5 15  1  0
  5 21  1  0
  5 22  1  0
  6  9  1  0
  6 12  1  0
  7  9  1  0
  7 18  1  0
  8 20  2  0
  8 22  1  0
 10 12  1  0
 11 13  1  0
 12 13  1  0
 13 21  1  0
 14 17  2  0
 16 17  1  0
 17 19  1  0
 21 23  2  0
 22 24  2  0
M  END
$$$$
