
     RDKit          3D

 14 13  0  0  0  0  0  0  0  0999 V2000
    7.3675  -13.8266  -15.9429 O   0  0  0  0  0  0  0  0  0  0  0  0
    6.8980  -11.3509  -17.9255 O   0  0  0  0  0  0  0  0  0  0  0  0
    2.2016  -13.9586  -14.1553 S   0  0  0  0  0  0  0  0  0  0  0  0
    5.7370  -11.3738  -15.1468 C   0  0  0  0  0  0  0  0  0  0  0  0
    7.9996  -11.9656  -17.3558 C   0  0  0  0  0  0  0  0  0  0  0  0
    5.6266  -10.1692  -12.9368 O   0  0  0  0  0  0  0  0  0  0  0  0
    2.7367  -10.9384  -14.9320 C   0  0  0  0  0  0  0  0  0  0  0  0
    1.6118  -12.6034  -13.1077 C   0  0  0  0  0  0  0  0  0  0  0  0
    7.7695  -12.5446  -15.9993 C   0  0  0  0  0  0  0  0  0  0  0  0
    7.2345  -11.6094  -15.0153 C   0  0  0  0  0  0  0  0  0  0  0  0
    3.5894  -11.1213  -13.7398 C   0  0  0  0  0  0  0  0  0  0  0  0
    3.2834  -12.9277  -11.2994 N   0  0  0  0  0  0  0  0  0  0  0  0
    2.9454  -11.8966  -12.5378 C   0  0  0  0  0  0  0  0  0  0  0  0
    5.0474  -11.0121  -13.9148 C   0  0  0  0  0  0  0  0  0  0  0  0
  1  9  1  0
  2  5  1  0
  3  8  1  0
  4 10  1  0
  4 14  1  0
  5  9  1  0
  6 14  1  0
  7 11  1  0
  8 13  1  0
  9 10  1  0
 11 13  1  0
 11 14  1  0
 12 13  1  0
M  END
$$$$
