
     RDKit          3D

  9  8  0  0  0  0  0  0  0  0999 V2000
    6.8887  -11.4473  -15.9718 C   0  0  0  0  0  0  0  0  0  0  0  0
    6.1191  -11.8705  -13.6150 C   0  0  0  0  0  0  0  0  0  0  0  0
    6.9948  -12.6731  -18.7154 O   0  0  0  0  0  0  0  0  0  0  0  0
    4.9141   -9.8143  -13.9173 O   0  0  0  0  0  0  0  0  0  0  0  0
    4.4996  -11.0504  -15.8342 O   0  0  0  0  0  0  0  0  0  0  0  0
    7.1639  -13.3034  -17.6547 C   0  0  0  0  0  0  0  0  0  0  0  0
    5.5043  -10.9217  -14.7705 C   0  0  0  0  0  0  0  0  0  0  0  0
    7.7116  -14.5145  -17.6372 O   0  0  0  0  0  0  0  0  0  0  0  0
    6.4805  -12.8772  -16.4031 C   0  0  0  0  0  0  0  0  0  0  0  0
  1  7  1  0
  1  9  1  0
  2  7  1  0
  3  6  2  0
  4  7  1  0
  5  7  1  0
  6  8  1  0
  6  9  1  0
M  END
$$$$
