
     RDKit          3D

 31 32  0  0  0  0  0  0  0  0999 V2000
    0.7116    1.2724   -0.2290 C   0  0  0  0  0  0  0  0  0  0  0  0
    5.2412    4.6706    4.2081 O   0  0  0  0  0  0  0  0  0  0  0  0
    8.5752   -1.4412    0.0307 C   0  0  0  0  0  0  0  0  0  0  0  0
    3.5048   -0.6658    1.2886 C   0  0  0  0  0  0  0  0  0  0  0  0
    9.0148   -2.8721    0.2689 C   0  0  0  0  0  0  0  0  0  0  0  0
    5.0239    4.5179    1.6174 O   0  0  0  0  0  0  0  0  0  0  0  0
    5.1186   -0.9087    2.8166 C   0  0  0  0  0  0  0  0  0  0  0  0
    3.1226    1.7091    0.7429 C   0  0  0  0  0  0  0  0  0  0  0  0
   10.1864   -3.0452    1.0172 O   0  0  0  0  0  0  0  0  0  0  0  0
   -0.5580    1.2343   -0.1866 O   0  0  0  0  0  0  0  0  0  0  0  0
    4.7522   -0.2491    1.7277 C   0  0  0  0  0  0  0  0  0  0  0  0
    4.1305   -1.9685    3.0470 C   0  0  0  0  0  0  0  0  0  0  0  0
    3.1651   -1.7820    2.0756 N   0  0  0  0  0  0  0  0  0  0  0  0
    7.9464    3.6323    4.0167 O   0  0  0  0  0  0  0  0  0  0  0  0
    1.6062    0.1588   -0.0664 C   0  0  0  0  0  0  0  0  0  0  0  0
    7.7567   -0.9968    1.2400 C   0  0  0  0  0  0  0  0  0  0  0  0
    2.7473    0.3923    0.6135 C   0  0  0  0  0  0  0  0  0  0  0  0
    6.4265   -0.4726    3.6179 C   0  0  0  0  0  0  0  0  0  0  0  0
    6.0613   -0.5154    5.0456 O   0  0  0  0  0  0  0  0  0  0  0  0
    2.4474    2.7967    0.2793 C   0  0  0  0  0  0  0  0  0  0  0  0
    0.2157    3.7394    0.0208 F   0  0  0  0  0  0  0  0  0  0  0  0
    3.0834    3.9633    0.0342 O   0  0  0  0  0  0  0  0  0  0  0  0
    7.6138   -1.4219    2.8657 C   0  0  0  0  0  0  0  0  0  0  0  0
    4.9948    4.0967    3.0290 C   0  0  0  0  0  0  0  0  0  0  0  0
    4.0086   -2.7385    4.0892 O   0  0  0  0  0  0  0  0  0  0  0  0
    8.9241   -0.9526   -1.3675 C   0  0  0  0  0  0  0  0  0  0  0  0
    5.2017    2.7097    3.4612 C   0  0  0  0  0  0  0  0  0  0  0  0
    7.1068    1.0470    3.4558 C   0  0  0  0  0  0  0  0  0  0  0  0
    1.1317    2.5590   -0.0372 N   0  0  0  0  0  0  0  0  0  0  0  0
    2.0071   -2.5854    2.1102 C   0  0  0  0  0  0  0  0  0  0  0  0
    6.8050    2.6098    3.6036 C   0  0  0  0  0  0  0  0  0  0  0  0
  1 10  2  0
  1 15  1  0
  1 29  1  0
  2 24  2  0
  3  5  1  0
  3 16  1  0
  3 26  1  0
  4 11  1  0
  4 13  1  0
  4 17  1  0
  5  9  1  0
  6 24  1  0
  7 11  1  0
  7 12  1  0
  7 18  1  0
  8 17  2  0
  8 20  1  0
 12 13  1  0
 12 25  2  0
 13 30  1  0
 14 31  1  0
 15 17  1  0
 16 23  1  0
 18 19  1  0
 18 23  1  0
 18 28  1  0
 20 22  2  0
 20 29  1  0
 21 29  1  0
 24 27  1  0
 27 31  1  0
 28 31  1  0
M  END
$$$$
