
     RDKit          3D

 65 68  0  0  0  0  0  0  0  0999 V2000
    4.3959   -2.9880    3.5047 C   0  0  0  0  0  0  0  0  0  0  0  0
   -1.5988    2.8495   -1.4147 C   0  0  0  0  0  0  0  0  0  0  0  0
    6.1456    2.0197    5.5453 C   0  0  0  0  0  0  0  0  0  0  0  0
    4.6050    4.9417    1.9845 O   0  0  0  0  0  0  0  0  0  0  0  0
    0.5704    1.6828   -0.5766 C   0  0  0  0  0  0  0  0  0  0  0  0
    5.0230   -4.3727    5.6033 C   0  0  0  0  0  0  0  0  0  0  0  0
    3.8573   -4.7550    6.3516 O   0  0  0  0  0  0  0  0  0  0  0  0
    4.8127   -1.3253    7.9918 C   0  0  0  0  0  0  0  0  0  0  0  0
    8.3773   -1.5169    1.5907 C   0  0  0  0  0  0  0  0  0  0  0  0
    2.8494   -0.2080   -0.0230 C   0  0  0  0  0  0  0  0  0  0  0  0
    9.2253   -1.4339    6.5442 C   0  0  0  0  0  0  0  0  0  0  0  0
    4.2575   -4.3507    4.1413 C   0  0  0  0  0  0  0  0  0  0  0  0
    5.0680    3.5617    3.4504 C   0  0  0  0  0  0  0  0  0  0  0  0
    9.0248   -0.5221    2.7010 C   0  0  0  0  0  0  0  0  0  0  0  0
    6.4057    0.5748    6.1117 C   0  0  0  0  0  0  0  0  0  0  0  0
    3.4534    3.0962    1.3533 C   0  0  0  0  0  0  0  0  0  0  0  0
    1.9691    2.1046   -0.2477 C   0  0  0  0  0  0  0  0  0  0  0  0
    1.6455   -2.6230    3.2480 O   0  0  0  0  0  0  0  0  0  0  0  0
    9.8264   -1.5428   -0.3299 C   0  0  0  0  0  0  0  0  0  0  0  0
    9.6622    0.6527    3.5500 C   0  0  0  0  0  0  0  0  0  0  0  0
    3.1378   -2.0683    1.4035 C   0  0  0  0  0  0  0  0  0  0  0  0
    3.6233    1.6890    1.3341 C   0  0  0  0  0  0  0  0  0  0  0  0
   -0.2288    1.2002    0.0013 O   0  0  0  0  0  0  0  0  0  0  0  0
    3.5781   -2.9591    2.3473 C   0  0  0  0  0  0  0  0  0  0  0  0
    5.3248   -1.1441    0.8511 C   0  0  0  0  0  0  0  0  0  0  0  0
    8.4633   -3.0603    4.6022 C   0  0  0  0  0  0  0  0  0  0  0  0
    4.8326    2.4823    5.8493 O   0  0  0  0  0  0  0  0  0  0  0  0
    6.3251   -5.1799    5.2135 C   0  0  0  0  0  0  0  0  0  0  0  0
    5.7868    0.5554    9.4300 C   0  0  0  0  0  0  0  0  0  0  0  0
    9.3704    2.1916    3.6044 C   0  0  0  0  0  0  0  0  0  0  0  0
    6.4867    3.3515    3.4180 C   0  0  0  0  0  0  0  0  0  0  0  0
    7.1190   -2.9583    6.6869 C   0  0  0  0  0  0  0  0  0  0  0  0
    7.4226   -4.3019    4.4918 C   0  0  0  0  0  0  0  0  0  0  0  0
   -0.3654    2.9626   -0.5918 C   0  0  0  0  0  0  0  0  0  0  0  0
    2.8783   -4.8116    4.0061 O   0  0  0  0  0  0  0  0  0  0  0  0
    7.8462   -4.0550    7.2574 O   0  0  0  0  0  0  0  0  0  0  0  0
   11.1507   -0.7000    0.0644 C   0  0  0  0  0  0  0  0  0  0  0  0
    8.1075   -2.1504    5.8026 C   0  0  0  0  0  0  0  0  0  0  0  0
    2.4727   -3.6716    2.7548 C   0  0  0  0  0  0  0  0  0  0  0  0
    9.5426    2.7501    2.2949 O   0  0  0  0  0  0  0  0  0  0  0  0
    4.7814   -2.7896    7.6533 C   0  0  0  0  0  0  0  0  0  0  0  0
    0.1329    3.8514   -0.3675 O   0  0  0  0  0  0  0  0  0  0  0  0
    9.6191   -3.6728    1.0198 C   0  0  0  0  0  0  0  0  0  0  0  0
    8.9141   -0.0548    7.1041 O   0  0  0  0  0  0  0  0  0  0  0  0
    9.2143    1.4746    6.9332 C   0  0  0  0  0  0  0  0  0  0  0  0
    2.6009    3.3297    0.1021 C   0  0  0  0  0  0  0  0  0  0  0  0
    5.3754   -0.9244    9.3194 C   0  0  0  0  0  0  0  0  0  0  0  0
    5.3481   -0.4076    6.8364 C   0  0  0  0  0  0  0  0  0  0  0  0
   -2.5474    2.4777   -0.9762 O   0  0  0  0  0  0  0  0  0  0  0  0
    9.1365   -0.1425   -2.4157 C   0  0  0  0  0  0  0  0  0  0  0  0
    8.9443   -1.1105   -1.3932 C   0  0  0  0  0  0  0  0  0  0  0  0
    5.6119   -3.1179    6.4196 C   0  0  0  0  0  0  0  0  0  0  0  0
    2.9497    1.1235    0.2132 N   0  0  0  0  0  0  0  0  0  0  0  0
    5.2347    4.4667    4.4916 O   0  0  0  0  0  0  0  0  0  0  0  0
    4.8199    1.5402    8.9315 C   0  0  0  0  0  0  0  0  0  0  0  0
    6.9268   -1.3795    0.9772 C   0  0  0  0  0  0  0  0  0  0  0  0
    4.4142    3.9529    2.1678 C   0  0  0  0  0  0  0  0  0  0  0  0
    3.8227   -1.0363    0.6710 C   0  0  0  0  0  0  0  0  0  0  0  0
    9.3434   -2.3341    0.7715 C   0  0  0  0  0  0  0  0  0  0  0  0
    1.8283   -0.6855   -0.3717 O   0  0  0  0  0  0  0  0  0  0  0  0
    7.3393   -4.6569    2.9226 C   0  0  0  0  0  0  0  0  0  0  0  0
   10.5390    1.5806    6.6691 O   0  0  0  0  0  0  0  0  0  0  0  0
    8.5760    3.1229    4.6189 C   0  0  0  0  0  0  0  0  0  0  0  0
    7.1559    2.5350    4.5189 C   0  0  0  0  0  0  0  0  0  0  0  0
    8.4262    2.8347    7.1697 O   0  0  0  0  0  0  0  0  0  0  0  0
  1 12  1  0
  1 24  1  0
  2 34  1  0
  2 49  2  0
  3 15  2  3
  3 27  1  0
  3 64  1  0
  4 57  2  0
  5 17  1  0
  5 23  1  0
  5 34  1  0
  6  7  1  0
  6 12  1  0
  6 28  1  0
  6 52  1  0
  8 41  1  0
  8 47  1  0
  8 48  1  0
  9 14  2  0
  9 56  1  0
  9 59  1  0
 10 53  1  0
 10 58  1  0
 10 60  2  0
 11 38  1  0
 11 44  1  0
 12 35  1  0
 13 31  1  0
 13 54  1  0
 13 57  1  0
 14 20  2  0
 15 48  1  0
 16 22  1  0
 16 46  1  0
 16 57  1  0
 17 46  1  0
 17 53  1  0
 18 39  1  0
 19 37  1  0
 19 51  2  3
 19 59  1  0
 20 30  1  0
 21 24  1  0
 21 58  2  3
 22 53  1  0
 24 39  1  0
 25 56  3  0
 25 58  1  0
 26 33  1  0
 26 38  1  0
 28 33  1  0
 29 47  1  0
 29 55  1  0
 30 40  1  0
 30 63  1  0
 31 64  1  0
 32 36  1  0
 32 38  1  0
 32 52  1  0
 33 61  1  0
 34 42  2  0
 41 52  1  0
 43 59  1  0
 44 45  1  0
 45 62  2  0
 45 65  1  0
 50 51  1  0
 63 64  1  0
M  END
$$$$
