
     RDKit          3D

 32 32  0  0  0  0  0  0  0  0999 V2000
    5.6122    3.5093    3.9780 P   0  0  0  0  0  0  0  0  0  0  0  0
    0.0086    3.6980   -0.2876 N   0  0  0  0  0  0  0  0  0  0  0  0
    0.0481    2.5796   -0.3936 C   0  0  0  0  0  0  0  0  0  0  0  0
    9.3007    2.4472    0.6646 O   0  0  0  0  0  0  0  0  0  0  0  0
   10.4456   -3.0967    1.3988 O   0  0  0  0  0  0  0  0  0  0  0  0
    4.7554   -2.3732    2.9830 N   0  0  0  0  0  0  0  0  0  0  0  0
    3.6522    0.2177    1.4015 C   0  0  0  0  0  0  0  0  0  0  0  0
    1.4344   -2.9095    1.9269 O   0  0  0  0  0  0  0  0  0  0  0  0
    2.6739   -2.2012    1.8620 C   0  0  0  0  0  0  0  0  0  0  0  0
    4.6765    2.9474    5.1390 O   0  0  0  0  0  0  0  0  0  0  0  0
   -1.1425    1.9536   -0.3157 N   0  0  0  0  0  0  0  0  0  0  0  0
    1.9436   -0.6215    0.2252 C   0  0  0  0  0  0  0  0  0  0  0  0
    9.6665    0.1580   -0.1592 C   0  0  0  0  0  0  0  0  0  0  0  0
    7.3069    3.3350    4.2170 O   0  0  0  0  0  0  0  0  0  0  0  0
    5.4553    2.8809    2.3472 O   0  0  0  0  0  0  0  0  0  0  0  0
    1.1878    1.7733   -0.0422 C   0  0  0  0  0  0  0  0  0  0  0  0
    5.5853    1.3380    2.3766 C   0  0  0  0  0  0  0  0  0  0  0  0
    2.3770    2.3046    0.5760 C   0  0  0  0  0  0  0  0  0  0  0  0
   10.2114   -0.7102    0.9555 C   0  0  0  0  0  0  0  0  0  0  0  0
   10.0705    1.6430   -0.0368 C   0  0  0  0  0  0  0  0  0  0  0  0
    9.7604   -2.1694    0.9113 C   0  0  0  0  0  0  0  0  0  0  0  0
    3.1925   -4.3406    3.1927 C   0  0  0  0  0  0  0  0  0  0  0  0
    1.2359    0.4440   -0.1410 N   0  0  0  0  0  0  0  0  0  0  0  0
    2.8242   -1.0025    1.1363 C   0  0  0  0  0  0  0  0  0  0  0  0
    4.7589    0.0868    2.2935 C   0  0  0  0  0  0  0  0  0  0  0  0
    5.0659   -1.1155    2.8473 C   0  0  0  0  0  0  0  0  0  0  0  0
    7.7221   -3.0743    2.0670 C   0  0  0  0  0  0  0  0  0  0  0  0
    5.2820    4.6983    4.2141 O   0  0  0  0  0  0  0  0  0  0  0  0
    8.3374   -2.3760    0.8393 C   0  0  0  0  0  0  0  0  0  0  0  0
    3.2951    1.4617    1.0472 N   0  0  0  0  0  0  0  0  0  0  0  0
    3.6114   -2.9568    2.6475 C   0  0  0  0  0  0  0  0  0  0  0  0
    6.9845    0.9449    2.4170 O   0  0  0  0  0  0  0  0  0  0  0  0
  1 10  1  0
  1 14  1  0
  1 15  1  0
  1 28  1  0
  2  3  2  0
  3 11  1  0
  3 16  1  0
  4 20  1  0
  5 21  2  0
  6 26  2  0
  6 31  1  0
  7 24  1  0
  7 25  1  0
  7 30  1  0
  8  9  1  0
  9 24  1  0
  9 31  2  0
 12 23  1  0
 12 24  1  0
 13 19  1  0
 13 20  1  0
 15 17  1  0
 16 18  1  0
 16 23  2  0
 17 25  1  0
 17 32  2  0
 18 30  2  0
 19 21  1  0
 21 29  1  0
 22 31  1  0
 25 26  1  0
 27 29  1  0
M  END
$$$$
