
     RDKit          3D

 31 33  0  0  0  0  0  0  0  0999 V2000
   25.3110   34.7772  103.5297 C   0  0  0  0  0  0  0  0  0  0  0  0
   27.3330   36.2611  103.7111 C   0  0  0  0  0  0  0  0  0  0  0  0
   30.0538   32.8580  102.7121 C   0  0  0  0  0  0  0  0  0  0  0  0
   27.6297   33.9477  103.6318 C   0  0  0  0  0  0  0  0  0  0  0  0
   31.4134   33.5349  102.7813 C   0  0  0  0  0  0  0  0  0  0  0  0
   29.5889   37.2853  103.7254 O   0  0  0  0  0  0  0  0  0  0  0  0
   28.9673   33.7337  103.3013 C   0  0  0  0  0  0  0  0  0  0  0  0
   22.5800   33.5541  105.7331 C   0  0  0  0  0  0  0  0  0  0  0  0
   32.1484   33.7428  101.7194 O   0  0  0  0  0  0  0  0  0  0  0  0
   22.7180   34.1388  107.1877 C   0  0  0  0  0  0  0  0  0  0  0  0
   26.8466   34.8736  103.4511 C   0  0  0  0  0  0  0  0  0  0  0  0
   24.6391   34.4455  104.6120 C   0  0  0  0  0  0  0  0  0  0  0  0
   23.9544   32.1416  104.0658 C   0  0  0  0  0  0  0  0  0  0  0  0
   31.5805   34.9790  104.7392 O   0  0  0  0  0  0  0  0  0  0  0  0
   23.3635   36.7011   98.6226 C   0  0  0  0  0  0  0  0  0  0  0  0
   30.9748   34.9732  103.4792 C   0  0  0  0  0  0  0  0  0  0  0  0
   23.7334   33.4128  104.9259 N   0  0  0  0  0  0  0  0  0  0  0  0
   25.2418   33.9950  107.4135 C   0  0  0  0  0  0  0  0  0  0  0  0
   26.0809   33.2576  107.7022 O   0  0  0  0  0  0  0  0  0  0  0  0
   25.3910   35.3050  102.3609 C   0  0  0  0  0  0  0  0  0  0  0  0
   25.3426   36.7393  100.7067 N   0  0  0  0  0  0  0  0  0  0  0  0
   25.8287   36.1397  101.4250 N   0  0  0  0  0  0  0  0  0  0  0  0
   31.8073   33.4768  103.6518 O   0  0  0  0  0  0  0  0  0  0  0  0
   28.9141   36.1791  103.7118 C   0  0  0  0  0  0  0  0  0  0  0  0
   24.5128   34.1486  109.5828 O   0  0  0  0  0  0  0  0  0  0  0  0
   23.6547   35.8559   99.5766 C   0  0  0  0  0  0  0  0  0  0  0  0
   23.9658   34.0314  108.1903 C   0  0  0  0  0  0  0  0  0  0  0  0
   32.2419   33.8523  105.0177 C   0  0  0  0  0  0  0  0  0  0  0  0
   24.2368   36.1174  100.0460 C   0  0  0  0  0  0  0  0  0  0  0  0
   21.5000   32.3940  105.4984 C   0  0  0  0  0  0  0  0  0  0  0  0
   29.6505   34.9249  103.5453 C   0  0  0  0  0  0  0  0  0  0  0  0
  1 11  1  0
  1 12  1  0
  1 20  1  0
  2 11  1  0
  2 24  1  0
  3  5  1  0
  3  7  1  0
  4  7  1  0
  4 11  1  0
  5  9  1  0
  5 16  1  0
  5 23  1  0
  6 24  1  0
  7 31  1  0
  8 10  1  0
  8 17  1  0
  8 30  1  0
 10 27  1  0
 12 17  1  0
 13 17  1  0
 14 16  1  0
 14 28  1  0
 15 26  1  0
 16 31  1  0
 18 19  2  0
 18 27  1  0
 20 22  1  0
 21 22  1  0
 21 29  1  0
 23 28  1  0
 24 31  2  0
 25 27  1  0
 26 29  1  0
M  END
$$$$
