
     RDKit          3D

 29 32  0  0  0  0  0  0  0  0999 V2000
   32.1013   33.5350  101.9718 O   0  0  0  0  0  0  0  0  0  0  0  0
   24.5075   35.4002  100.6427 C   0  0  0  0  0  0  0  0  0  0  0  0
   25.5104   34.2731  104.4075 C   0  0  0  0  0  0  0  0  0  0  0  0
   28.0459   34.4513  104.4258 N   0  0  0  0  0  0  0  0  0  0  0  0
   21.6489   32.1633  106.4002 O   0  0  0  0  0  0  0  0  0  0  0  0
   31.3243   33.1055  103.1214 C   0  0  0  0  0  0  0  0  0  0  0  0
   29.7898   33.2009  103.0138 C   0  0  0  0  0  0  0  0  0  0  0  0
   25.6124   36.7747  100.6183 N   0  0  0  0  0  0  0  0  0  0  0  0
   23.6517   36.7286   99.2041 O   0  0  0  0  0  0  0  0  0  0  0  0
   32.6275   33.9018  105.3145 C   0  0  0  0  0  0  0  0  0  0  0  0
   29.8681   36.8295  103.5329 O   0  0  0  0  0  0  0  0  0  0  0  0
   25.1662   34.1585  106.9193 C   0  0  0  0  0  0  0  0  0  0  0  0
   24.2815   33.9762  107.9733 C   0  0  0  0  0  0  0  0  0  0  0  0
   22.7243   32.8904  106.5064 C   0  0  0  0  0  0  0  0  0  0  0  0
   26.8904   34.5998  104.2955 C   0  0  0  0  0  0  0  0  0  0  0  0
   31.7930   33.7968  104.3369 C   0  0  0  0  0  0  0  0  0  0  0  0
   24.4954   34.2353  109.1327 O   0  0  0  0  0  0  0  0  0  0  0  0
   23.5672   33.1441  105.4425 C   0  0  0  0  0  0  0  0  0  0  0  0
   30.1049   35.5521  103.8544 C   0  0  0  0  0  0  0  0  0  0  0  0
   29.2899   34.2519  103.9657 C   0  0  0  0  0  0  0  0  0  0  0  0
   24.3817   36.2375  100.1515 C   0  0  0  0  0  0  0  0  0  0  0  0
   30.9367   34.8308  104.6626 N   0  0  0  0  0  0  0  0  0  0  0  0
   26.0458   36.0283  101.6486 C   0  0  0  0  0  0  0  0  0  0  0  0
   27.4093   35.2505  103.5469 C   0  0  0  0  0  0  0  0  0  0  0  0
   22.9523   33.5729  107.6681 C   0  0  0  0  0  0  0  0  0  0  0  0
   27.2201   36.0122  102.4708 C   0  0  0  0  0  0  0  0  0  0  0  0
   25.1416   35.3016  102.1286 C   0  0  0  0  0  0  0  0  0  0  0  0
   24.7410   33.8640  105.5907 C   0  0  0  0  0  0  0  0  0  0  0  0
   24.8898   34.5652  103.2464 C   0  0  0  0  0  0  0  0  0  0  0  0
  1  6  1  0
  2 21  1  0
  2 27  1  0
  3 15  1  0
  3 28  1  0
  3 29  1  0
  4 15  1  0
  4 20  1  0
  5 14  1  0
  6  7  1  0
  6 16  1  0
  7 20  1  0
  8 21  1  0
  8 23  1  0
  9 21  2  0
 10 16  2  0
 11 19  2  0
 12 13  1  0
 12 28  2  0
 13 17  2  0
 13 25  1  0
 14 18  2  0
 14 25  1  0
 15 24  2  0
 16 22  1  0
 18 28  1  0
 19 20  1  0
 19 22  1  0
 23 26  2  0
 23 27  1  0
 24 26  1  0
 27 29  2  0
M  END
$$$$
