
     RDKit          3D

 25 26  0  0  0  0  0  0  0  0999 V2000
   26.2345   34.3594  107.0804 O   0  0  0  0  0  0  0  0  0  0  0  0
   30.7453   36.8586  103.5348 O   0  0  0  0  0  0  0  0  0  0  0  0
   23.6570   33.4191  105.9677 C   0  0  0  0  0  0  0  0  0  0  0  0
   32.5720   33.9866  105.0508 O   0  0  0  0  0  0  0  0  0  0  0  0
   24.5355   33.6211  104.8991 N   0  0  0  0  0  0  0  0  0  0  0  0
   30.3219   34.7164  104.5760 C   0  0  0  0  0  0  0  0  0  0  0  0
   30.0293   36.1212  103.8134 C   0  0  0  0  0  0  0  0  0  0  0  0
   31.3007   33.2871  102.8959 C   0  0  0  0  0  0  0  0  0  0  0  0
   31.5205   33.8891  104.2184 C   0  0  0  0  0  0  0  0  0  0  0  0
   26.1104   34.9883  103.3855 C   0  0  0  0  0  0  0  0  0  0  0  0
   23.2151   31.9150  104.3172 C   0  0  0  0  0  0  0  0  0  0  0  0
   25.5384   37.3405  101.0189 O   0  0  0  0  0  0  0  0  0  0  0  0
   27.8708   34.5021  104.9641 C   0  0  0  0  0  0  0  0  0  0  0  0
   24.2858   32.6317  103.8969 C   0  0  0  0  0  0  0  0  0  0  0  0
   24.1806   35.8948   99.9755 N   0  0  0  0  0  0  0  0  0  0  0  0
   25.0825   36.1901  101.0072 C   0  0  0  0  0  0  0  0  0  0  0  0
   28.9812   34.1501  104.2106 C   0  0  0  0  0  0  0  0  0  0  0  0
   27.4087   35.7792  103.0844 C   0  0  0  0  0  0  0  0  0  0  0  0
   25.4652   34.7086  104.7223 C   0  0  0  0  0  0  0  0  0  0  0  0
   26.5110   34.6736  105.7369 C   0  0  0  0  0  0  0  0  0  0  0  0
   28.6292   36.3072  103.5553 C   0  0  0  0  0  0  0  0  0  0  0  0
   32.1620   33.7086  101.9563 O   0  0  0  0  0  0  0  0  0  0  0  0
   30.1381   32.6221  102.6547 O   0  0  0  0  0  0  0  0  0  0  0  0
   22.8029   32.4236  105.6292 C   0  0  0  0  0  0  0  0  0  0  0  0
   25.2086   35.2859  102.2685 C   0  0  0  0  0  0  0  0  0  0  0  0
  1 20  1  0
  2  7  2  0
  3  5  1  0
  3 24  1  0
  4  9  1  0
  5 14  1  0
  5 19  1  0
  6  7  1  0
  6  9  1  0
  6 17  1  0
  7 21  1  0
  8  9  1  0
  8 22  2  0
  8 23  1  0
 10 18  1  0
 10 19  1  0
 10 25  1  0
 11 14  1  0
 11 24  1  0
 12 16  2  0
 13 17  2  0
 13 20  2  0
 15 16  1  0
 16 25  1  0
 18 21  1  0
 19 20  1  0
M  END
$$$$
