
     RDKit          3D

 18 18  0  0  0  0  0  0  0  0999 V2000
   27.8452   35.7349  103.4788 C   0  0  0  0  0  0  0  0  0  0  0  0
   24.2719   33.6483  105.8709 O   0  0  0  0  0  0  0  0  0  0  0  0
   25.2799   34.2602  105.8538 C   0  0  0  0  0  0  0  0  0  0  0  0
   32.1335   33.6731  102.0385 O   0  0  0  0  0  0  0  0  0  0  0  0
   30.0031   34.7496  104.6273 C   0  0  0  0  0  0  0  0  0  0  0  0
   24.2309   36.0117  100.0803 C   0  0  0  0  0  0  0  0  0  0  0  0
   25.9313   34.3426  107.0487 O   0  0  0  0  0  0  0  0  0  0  0  0
   30.0844   32.8095  102.7223 C   0  0  0  0  0  0  0  0  0  0  0  0
   25.9053   34.6682  104.4378 C   0  0  0  0  0  0  0  0  0  0  0  0
   29.3640   35.9708  103.7489 C   0  0  0  0  0  0  0  0  0  0  0  0
   25.8220   35.5179  101.9967 C   0  0  0  0  0  0  0  0  0  0  0  0
   31.3685   33.3717  103.0354 C   0  0  0  0  0  0  0  0  0  0  0  0
   25.1938   34.8815  103.1948 C   0  0  0  0  0  0  0  0  0  0  0  0
   24.9851   36.7774  101.3034 C   0  0  0  0  0  0  0  0  0  0  0  0
   26.9160   36.3043  102.4817 C   0  0  0  0  0  0  0  0  0  0  0  0
   29.9296   36.8733  103.6276 O   0  0  0  0  0  0  0  0  0  0  0  0
   27.2437   34.9048  104.4222 N   0  0  0  0  0  0  0  0  0  0  0  0
   31.4128   34.2441  104.3036 C   0  0  0  0  0  0  0  0  0  0  0  0
  1 10  1  0
  1 15  1  0
  1 17  2  0
  2  3  2  0
  3  7  1  0
  3  9  1  0
  4 12  1  0
  5 10  1  0
  5 18  1  0
  6 14  1  0
  8 12  1  0
  9 13  2  0
  9 17  1  0
 10 16  2  0
 11 13  1  0
 11 14  1  0
 11 15  1  0
 12 18  1  0
M  END
$$$$
