
     RDKit          3D

 23 23  0  0  0  0  0  0  0  0999 V2000
   27.2163   34.8749  104.9099 C   0  0  0  0  0  0  0  0  0  0  0  0
   25.1639   34.4719  103.5682 C   0  0  0  0  0  0  0  0  0  0  0  0
   26.5323   33.6098  107.5009 O   0  0  0  0  0  0  0  0  0  0  0  0
   25.4477   34.2488  107.2984 C   0  0  0  0  0  0  0  0  0  0  0  0
   24.3385   35.1367  104.7918 C   0  0  0  0  0  0  0  0  0  0  0  0
   26.2504   33.8616  104.2935 N   0  0  0  0  0  0  0  0  0  0  0  0
   26.6037   35.7201  102.0162 O   0  0  0  0  0  0  0  0  0  0  0  0
   29.0898   37.1011  103.7552 O   0  0  0  0  0  0  0  0  0  0  0  0
   30.0285   33.1941  103.3043 C   0  0  0  0  0  0  0  0  0  0  0  0
   28.4891   34.7614  104.0786 C   0  0  0  0  0  0  0  0  0  0  0  0
   28.8103   33.4895  103.6785 N   0  0  0  0  0  0  0  0  0  0  0  0
   24.8974   34.8005  108.3004 O   0  0  0  0  0  0  0  0  0  0  0  0
   24.6277   34.1035  106.0259 C   0  0  0  0  0  0  0  0  0  0  0  0
   24.3896   35.3147  101.4375 O   0  0  0  0  0  0  0  0  0  0  0  0
   25.4677   35.2628  102.3219 C   0  0  0  0  0  0  0  0  0  0  0  0
   24.4318   36.2796  100.4586 C   0  0  0  0  0  0  0  0  0  0  0  0
   29.3992   35.8460  103.7880 C   0  0  0  0  0  0  0  0  0  0  0  0
   30.6314   35.5033  103.4703 N   0  0  0  0  0  0  0  0  0  0  0  0
   32.0612   33.9122  104.6911 C   0  0  0  0  0  0  0  0  0  0  0  0
   32.1663   33.8472  102.4383 O   0  0  0  0  0  0  0  0  0  0  0  0
   31.1434   34.1520  103.4627 C   0  0  0  0  0  0  0  0  0  0  0  0
   23.6422   36.0557   99.3543 N   0  0  0  0  0  0  0  0  0  0  0  0
   24.9360   37.4595  100.6554 O   0  0  0  0  0  0  0  0  0  0  0  0
  1  6  1  0
  1 10  1  0
  2  5  1  0
  2  6  1  0
  2 15  1  0
  3  4  2  0
  4 12  1  0
  4 13  1  0
  5 13  1  0
  7 15  2  0
  8 17  2  0
  9 11  2  0
  9 21  1  0
 10 11  1  0
 10 17  1  0
 14 15  1  0
 14 16  1  0
 16 22  1  0
 16 23  2  0
 17 18  1  0
 18 21  1  0
 19 21  1  0
 20 21  1  0
M  END
$$$$
