
     RDKit          3D

 26 28  0  0  0  0  0  0  0  0999 V2000
    2.3786    2.0668    0.4215 C   0  0  0  0  0  0  0  0  0  0  0  0
    5.9120    3.5486    2.4809 O   0  0  0  0  0  0  0  0  0  0  0  0
    5.2899   -0.9679    0.9166 C   0  0  0  0  0  0  0  0  0  0  0  0
    0.6848   -2.6911    2.5414 O   0  0  0  0  0  0  0  0  0  0  0  0
    2.8607   -0.9340    1.2431 C   0  0  0  0  0  0  0  0  0  0  0  0
    2.0207   -2.8019    2.9011 C   0  0  0  0  0  0  0  0  0  0  0  0
    3.6282    3.5797    1.9921 C   0  0  0  0  0  0  0  0  0  0  0  0
    7.5792   -2.0426    1.5548 C   0  0  0  0  0  0  0  0  0  0  0  0
    8.7361    2.0910    2.5983 C   0  0  0  0  0  0  0  0  0  0  0  0
    4.0345   -0.1641    1.2783 C   0  0  0  0  0  0  0  0  0  0  0  0
    4.8694    4.1759    2.2568 C   0  0  0  0  0  0  0  0  0  0  0  0
    8.0489    0.6508    2.4848 C   0  0  0  0  0  0  0  0  0  0  0  0
    0.5396    1.0672   -0.6372 F   0  0  0  0  0  0  0  0  0  0  0  0
    2.0848    3.1833   -0.2590 N   0  0  0  0  0  0  0  0  0  0  0  0
    3.4653    2.2689    1.3567 C   0  0  0  0  0  0  0  0  0  0  0  0
    4.0317   -2.0728    3.0068 O   0  0  0  0  0  0  0  0  0  0  0  0
    9.0068    0.1465    1.2606 C   0  0  0  0  0  0  0  0  0  0  0  0
    6.2243   -1.4231    2.0123 C   0  0  0  0  0  0  0  0  0  0  0  0
    1.7973   -0.4135    0.5775 C   0  0  0  0  0  0  0  0  0  0  0  0
    5.3879   -2.4875    2.8188 C   0  0  0  0  0  0  0  0  0  0  0  0
    1.6373    0.8888    0.1586 C   0  0  0  0  0  0  0  0  0  0  0  0
    4.1750    1.1300    1.6271 C   0  0  0  0  0  0  0  0  0  0  0  0
    8.3533   -1.1280    0.5431 C   0  0  0  0  0  0  0  0  0  0  0  0
    2.9731   -2.2641    1.9577 C   0  0  0  0  0  0  0  0  0  0  0  0
    9.5888    1.8597    1.2771 C   0  0  0  0  0  0  0  0  0  0  0  0
    4.8449    5.4170    2.1562 O   0  0  0  0  0  0  0  0  0  0  0  0
  1 14  1  0
  1 15  1  0
  1 21  2  0
  2 11  2  0
  3 10  1  0
  3 18  1  0
  4  6  1  0
  5 10  1  0
  5 19  2  0
  5 24  1  0
  6 24  1  0
  7 11  1  0
  7 15  1  0
  8 18  1  0
  8 23  1  0
  9 12  1  0
  9 25  1  0
 10 22  1  0
 11 26  1  0
 12 17  1  0
 13 21  1  0
 15 22  2  0
 16 20  1  0
 16 24  1  0
 17 23  1  0
 17 25  1  0
 18 20  1  0
 19 21  1  0
M  END
$$$$
