
     RDKit          3D

 24 24  0  0  0  0  0  0  0  0999 V2000
    6.5481   -0.0534    1.8330 C   0  0  0  0  0  0  0  0  0  0  0  0
    2.0884   -0.5945    0.4061 C   0  0  0  0  0  0  0  0  0  0  0  0
    2.1937    1.9016    0.2720 C   0  0  0  0  0  0  0  0  0  0  0  0
    9.2457   -3.4074    1.0062 O   0  0  0  0  0  0  0  0  0  0  0  0
    3.3471   -0.5534    1.0284 C   0  0  0  0  0  0  0  0  0  0  0  0
    1.5081    0.6357    0.0932 N   0  0  0  0  0  0  0  0  0  0  0  0
    2.8254    4.1253   -0.0190 O   0  0  0  0  0  0  0  0  0  0  0  0
    5.8345    3.0308    1.9324 O   0  0  0  0  0  0  0  0  0  0  0  0
    4.1837   -1.7249    1.4582 C   0  0  0  0  0  0  0  0  0  0  0  0
    1.9315    3.2642   -0.1806 C   0  0  0  0  0  0  0  0  0  0  0  0
    3.3626    1.8140    0.9508 C   0  0  0  0  0  0  0  0  0  0  0  0
    7.4650    3.3863    3.8126 O   0  0  0  0  0  0  0  0  0  0  0  0
    0.6722    3.4724   -0.6009 N   0  0  0  0  0  0  0  0  0  0  0  0
    5.5556   -3.2624    3.0443 O   0  0  0  0  0  0  0  0  0  0  0  0
    5.5435   -1.1541    1.9363 C   0  0  0  0  0  0  0  0  0  0  0  0
   -0.3004    2.3583   -0.5693 O   0  0  0  0  0  0  0  0  0  0  0  0
    3.8710    0.6524    1.2774 C   0  0  0  0  0  0  0  0  0  0  0  0
    8.0337   -0.7050    1.9867 C   0  0  0  0  0  0  0  0  0  0  0  0
    7.7311   -2.1791    2.4807 C   0  0  0  0  0  0  0  0  0  0  0  0
    8.3839   -3.5537    2.1342 C   0  0  0  0  0  0  0  0  0  0  0  0
    5.2794    2.0015    4.1632 O   0  0  0  0  0  0  0  0  0  0  0  0
    5.1715    4.4932    3.9220 O   0  0  0  0  0  0  0  0  0  0  0  0
    6.2529   -2.3361    2.3267 N   0  0  0  0  0  0  0  0  0  0  0  0
    5.9645    3.2118    3.4635 P   0  0  0  0  0  0  0  0  0  0  0  0
  1 15  1  0
  1 18  1  0
  2  5  2  0
  2  6  1  0
  3  6  2  0
  3 10  1  0
  3 11  1  0
  4 20  1  0
  5  9  1  0
  5 17  1  0
  7 10  2  0
  8 24  1  0
  9 15  1  0
 10 13  1  0
 11 17  2  0
 12 24  1  0
 13 16  1  0
 14 23  1  0
 15 23  1  0
 18 19  1  0
 19 20  1  0
 19 23  1  0
 21 24  1  0
 22 24  1  0
M  END
$$$$
