
     RDKit          3D

 26 27  0  0  0  0  0  0  0  0999 V2000
   24.7330   34.5274  108.6805 O   0  0  0  0  0  0  0  0  0  0  0  0
   27.6125   35.0029  103.8615 C   0  0  0  0  0  0  0  0  0  0  0  0
   29.1490   33.4691  102.8110 C   0  0  0  0  0  0  0  0  0  0  0  0
   29.0035   34.7156  103.6050 N   0  0  0  0  0  0  0  0  0  0  0  0
   31.7780   33.4447  103.1102 C   0  0  0  0  0  0  0  0  0  0  0  0
   30.4536   32.8363  102.8522 C   0  0  0  0  0  0  0  0  0  0  0  0
   25.1060   36.3303  100.6302 C   0  0  0  0  0  0  0  0  0  0  0  0
   24.7376   34.4720  106.3633 C   0  0  0  0  0  0  0  0  0  0  0  0
   32.4207   33.8157  101.9693 O   0  0  0  0  0  0  0  0  0  0  0  0
   31.0708   35.0350  104.9573 C   0  0  0  0  0  0  0  0  0  0  0  0
   23.2585   36.7643   99.2236 O   0  0  0  0  0  0  0  0  0  0  0  0
   26.9244   34.7041  105.0305 C   0  0  0  0  0  0  0  0  0  0  0  0
   25.4773   35.6001  102.8568 C   0  0  0  0  0  0  0  0  0  0  0  0
   24.8160   35.1144  103.9682 C   0  0  0  0  0  0  0  0  0  0  0  0
   26.5237   33.5354  107.6570 O   0  0  0  0  0  0  0  0  0  0  0  0
   23.8909   35.7077   99.9130 C   0  0  0  0  0  0  0  0  0  0  0  0
   25.5362   34.7464  105.1396 C   0  0  0  0  0  0  0  0  0  0  0  0
   23.4042   34.0967  106.0498 N   0  0  0  0  0  0  0  0  0  0  0  0
   24.7490   36.1902  101.9049 O   0  0  0  0  0  0  0  0  0  0  0  0
   30.2270   34.2928  105.9170 O   0  0  0  0  0  0  0  0  0  0  0  0
   26.8542   35.5049  102.7967 C   0  0  0  0  0  0  0  0  0  0  0  0
   29.9968   36.8300  103.6402 O   0  0  0  0  0  0  0  0  0  0  0  0
   32.1133   34.0005  104.4079 C   0  0  0  0  0  0  0  0  0  0  0  0
   26.2748   36.0830  100.1101 O   0  0  0  0  0  0  0  0  0  0  0  0
   25.3712   34.1314  107.6293 C   0  0  0  0  0  0  0  0  0  0  0  0
   30.1338   35.5382  103.8636 C   0  0  0  0  0  0  0  0  0  0  0  0
  1 25  2  0
  2  4  1  0
  2 12  1  0
  2 21  2  0
  3  4  1  0
  3  6  1  0
  4 26  1  0
  5  6  1  0
  5  9  1  0
  5 23  1  0
  7 16  1  0
  7 19  1  0
  7 24  1  0
  8 17  1  0
  8 18  1  0
  8 25  1  0
 10 20  1  0
 10 23  1  0
 10 26  1  0
 11 16  1  0
 12 17  2  0
 13 14  2  0
 13 19  1  0
 13 21  1  0
 14 17  1  0
 15 25  1  0
 22 26  2  0
M  END
$$$$
