
     RDKit          3D

 24 23  0  0  0  0  0  0  0  0999 V2000
   27.5843   34.4370  104.2813 N   0  0  0  0  0  0  0  0  0  0  0  0
   24.0830   32.6563  103.9222 C   0  0  0  0  0  0  0  0  0  0  0  0
   24.1860   34.6962  102.4830 C   0  0  0  0  0  0  0  0  0  0  0  0
   30.2077   33.0050  102.8279 C   0  0  0  0  0  0  0  0  0  0  0  0
   24.5919   34.1254  103.7609 C   0  0  0  0  0  0  0  0  0  0  0  0
   25.1785   34.6907  105.2027 S   0  0  0  0  0  0  0  0  0  0  0  0
   23.9008   36.0880   99.8055 N   0  0  0  0  0  0  0  0  0  0  0  0
   24.7016   36.5023  100.7849 C   0  0  0  0  0  0  0  0  0  0  0  0
   25.2676   31.7744  104.0550 O   0  0  0  0  0  0  0  0  0  0  0  0
   26.4107   35.7224  102.2170 O   0  0  0  0  0  0  0  0  0  0  0  0
   28.9335   34.6831  104.5787 C   0  0  0  0  0  0  0  0  0  0  0  0
   29.3834   34.0907  105.6154 O   0  0  0  0  0  0  0  0  0  0  0  0
   29.1847   36.8401  103.5681 O   0  0  0  0  0  0  0  0  0  0  0  0
   30.8913   35.3377  103.3190 N   0  0  0  0  0  0  0  0  0  0  0  0
   31.3436   33.9308  103.2189 C   0  0  0  0  0  0  0  0  0  0  0  0
   25.1530   35.5237  101.7650 C   0  0  0  0  0  0  0  0  0  0  0  0
   32.5807   34.7560  105.2375 O   0  0  0  0  0  0  0  0  0  0  0  0
   29.6668   35.6910  103.7833 C   0  0  0  0  0  0  0  0  0  0  0  0
   26.7215   33.9800  105.4447 C   0  0  0  0  0  0  0  0  0  0  0  0
   25.0847   37.6881  100.9184 O   0  0  0  0  0  0  0  0  0  0  0  0
   32.2391   33.7971  102.0947 O   0  0  0  0  0  0  0  0  0  0  0  0
   24.3253   34.2450  106.3224 O   0  0  0  0  0  0  0  0  0  0  0  0
   25.3348   36.0939  105.1557 O   0  0  0  0  0  0  0  0  0  0  0  0
   32.1198   33.5777  104.5014 C   0  0  0  0  0  0  0  0  0  0  0  0
  1 11  1  0
  1 19  1  0
  2  5  1  0
  2  9  1  0
  3  5  1  0
  3 16  1  0
  4 15  1  0
  5  6  1  0
  6 19  1  0
  6 22  1  0
  6 23  1  0
  7  8  1  0
  8 16  1  0
  8 20  2  0
 10 16  1  0
 11 12  2  0
 11 18  1  0
 13 18  2  0
 14 15  1  0
 14 18  1  0
 15 21  1  0
 15 24  1  0
 17 24  1  0
M  END
$$$$
