
     RDKit          3D

 22 23  0  0  0  0  0  0  0  0999 V2000
   24.4265   34.5898  107.5715 O   0  0  0  0  0  0  0  0  0  0  0  0
   26.4725   33.5075  107.7016 O   0  0  0  0  0  0  0  0  0  0  0  0
   31.8950   33.0755  102.8063 O   0  0  0  0  0  0  0  0  0  0  0  0
   25.6192   34.3178  107.1959 C   0  0  0  0  0  0  0  0  0  0  0  0
   26.1876   35.6073  102.3475 C   0  0  0  0  0  0  0  0  0  0  0  0
   26.6841   36.5392  101.4690 C   0  0  0  0  0  0  0  0  0  0  0  0
   31.7334   33.6869  103.8697 C   0  0  0  0  0  0  0  0  0  0  0  0
   24.7649   35.2215  101.8578 N   0  0  0  0  0  0  0  0  0  0  0  0
   25.7361   36.7945  100.4139 N   0  0  0  0  0  0  0  0  0  0  0  0
   26.1747   34.3128  104.6275 C   0  0  0  0  0  0  0  0  0  0  0  0
   25.4672   36.2698  105.8513 O   0  0  0  0  0  0  0  0  0  0  0  0
   30.9343   36.0039  103.6396 N   0  0  0  0  0  0  0  0  0  0  0  0
   24.5594   36.0447  100.6468 C   0  0  0  0  0  0  0  0  0  0  0  0
   26.8393   35.0428  103.5214 C   0  0  0  0  0  0  0  0  0  0  0  0
   28.7399   36.6585  103.5351 C   0  0  0  0  0  0  0  0  0  0  0  0
   30.0198   36.9524  103.4719 N   0  0  0  0  0  0  0  0  0  0  0  0
   26.1651   35.0675  105.9880 C   0  0  0  0  0  0  0  0  0  0  0  0
   23.4541   36.1244   99.8657 F   0  0  0  0  0  0  0  0  0  0  0  0
   29.2430   34.3748  104.0218 C   0  0  0  0  0  0  0  0  0  0  0  0
   32.6947   33.7651  104.8026 N   0  0  0  0  0  0  0  0  0  0  0  0
   30.6045   34.6775  103.8778 C   0  0  0  0  0  0  0  0  0  0  0  0
   28.3045   35.3482  103.7423 C   0  0  0  0  0  0  0  0  0  0  0  0
  1  4  2  0
  2  4  1  0
  3  7  2  0
  4 17  1  0
  5  6  1  0
  5  8  1  0
  5 14  1  0
  6  9  1  0
  7 20  1  0
  7 21  1  0
  8 13  2  0
  9 13  1  0
 10 14  1  0
 10 17  1  0
 11 17  1  0
 12 16  1  0
 12 21  2  0
 13 18  1  0
 14 22  1  0
 15 16  2  0
 15 22  1  0
 19 21  1  0
 19 22  2  0
M  END
$$$$
