
     RDKit          3D

 21 24  0  0  0  0  0  0  0  0999 V2000
  -17.0045   -5.9800    5.4662 C   0  0  0  0  0  0  0  0  0  0  0  0
  -20.7801   -6.7306    5.6811 N   0  0  0  0  0  0  0  0  0  0  0  0
  -19.1711   -7.2611    4.2726 C   0  0  0  0  0  0  0  0  0  0  0  0
  -17.9706   -7.1534    3.6408 C   0  0  0  0  0  0  0  0  0  0  0  0
  -16.9119   -6.5620    4.2403 C   0  0  0  0  0  0  0  0  0  0  0  0
  -21.5212   -5.9970    6.5644 C   0  0  0  0  0  0  0  0  0  0  0  0
  -20.2994   -8.1308    3.7825 C   0  0  0  0  0  0  0  0  0  0  0  0
  -15.7470   -6.5774    3.5950 N   0  0  0  0  0  0  0  0  0  0  0  0
  -11.8860   -6.5386    4.6970 C   0  0  0  0  0  0  0  0  0  0  0  0
  -12.8101   -6.1151    5.6592 C   0  0  0  0  0  0  0  0  0  0  0  0
  -14.5120   -6.4069    3.9788 C   0  0  0  0  0  0  0  0  0  0  0  0
  -21.2224   -9.2104    1.6572 C   0  0  0  0  0  0  0  0  0  0  0  0
  -13.5558   -6.6768    3.0133 C   0  0  0  0  0  0  0  0  0  0  0  0
  -19.4064   -6.5876    5.3901 C   0  0  0  0  0  0  0  0  0  0  0  0
  -18.3308   -5.9014    6.0569 C   0  0  0  0  0  0  0  0  0  0  0  0
  -10.5772   -6.8323    5.0351 O   0  0  0  0  0  0  0  0  0  0  0  0
  -20.1205   -8.3790    2.2594 C   0  0  0  0  0  0  0  0  0  0  0  0
  -12.2526   -6.7217    3.3683 C   0  0  0  0  0  0  0  0  0  0  0  0
  -14.2691   -6.0036    5.2940 C   0  0  0  0  0  0  0  0  0  0  0  0
  -15.6278   -5.6469    5.9395 C   0  0  0  0  0  0  0  0  0  0  0  0
  -21.4711   -7.5422    4.5798 C   0  0  0  0  0  0  0  0  0  0  0  0
  1  5  1  0
  1 15  2  0
  1 20  1  0
  2  6  1  0
  2 14  1  0
  2 21  1  0
  3  4  1  0
  3  7  1  0
  3 14  2  0
  4  5  2  0
  5  8  1  0
  7 17  1  0
  7 21  1  0
  8 11  2  0
  9 10  2  0
  9 16  1  0
  9 18  1  0
 10 19  1  0
 11 13  1  0
 11 19  1  0
 12 17  1  0
 13 18  2  0
 14 15  1  0
 19 20  1  0
M  END
$$$$
