
     RDKit          3D

 11 11  0  0  0  0  0  0  0  0999 V2000
  -18.2095   -6.2905    3.6010 C   0  0  0  0  0  0  0  0  0  0  0  0
  -19.7071   -7.1893    5.2736 C   0  0  0  0  0  0  0  0  0  0  0  0
  -14.6871   -6.0305    4.3459 C   0  0  0  0  0  0  0  0  0  0  0  0
  -16.1115   -6.1818    4.4876 C   0  0  0  0  0  0  0  0  0  0  0  0
  -12.2986   -6.5132    4.7559 C   0  0  0  0  0  0  0  0  0  0  0  0
  -13.6408   -6.0535    5.3039 C   0  0  0  0  0  0  0  0  0  0  0  0
  -11.4419   -6.8593    5.5803 O   0  0  0  0  0  0  0  0  0  0  0  0
  -12.1993   -6.7071    3.5313 O   0  0  0  0  0  0  0  0  0  0  0  0
  -16.9397   -6.5460    5.5325 C   0  0  0  0  0  0  0  0  0  0  0  0
  -18.3538   -6.7029    4.8916 N   0  0  0  0  0  0  0  0  0  0  0  0
  -16.9167   -5.9706    3.3652 C   0  0  0  0  0  0  0  0  0  0  0  0
  1 10  1  0
  1 11  1  0
  2 10  1  0
  3  4  2  3
  3  6  1  0
  4  9  1  0
  4 11  1  0
  5  6  1  0
  5  7  2  0
  5  8  1  0
  9 10  1  0
M  END
$$$$
