
     RDKit          3D

 27 28  0  0  0  0  0  0  0  0999 V2000
  -19.6622   -5.9872    3.8491 C   0  0  0  0  0  0  0  0  0  0  0  0
  -21.7151   -5.5006    5.0157 C   0  0  0  0  0  0  0  0  0  0  0  0
  -24.2630   -4.8323    4.5790 C   0  0  0  0  0  0  0  0  0  0  0  0
  -21.0828   -6.2379    3.9286 C   0  0  0  0  0  0  0  0  0  0  0  0
  -16.9593   -6.2395    4.0375 C   0  0  0  0  0  0  0  0  0  0  0  0
   -9.9854   -7.9310    3.3071 N   0  0  0  0  0  0  0  0  0  0  0  0
  -24.4846   -4.7116    3.1425 C   0  0  0  0  0  0  0  0  0  0  0  0
   -9.5709   -7.2346    4.3794 C   0  0  0  0  0  0  0  0  0  0  0  0
  -11.2093   -1.2383   -2.1867 C   0  0  0  0  0  0  0  0  0  0  0  0
  -15.6065   -6.0661    4.1660 N   0  0  0  0  0  0  0  0  0  0  0  0
  -25.8144   -4.4830    2.8014 C   0  0  0  0  0  0  0  0  0  0  0  0
  -12.9858   -6.5149    4.2928 N   0  0  0  0  0  0  0  0  0  0  0  0
  -19.0370   -5.6731    5.0909 N   0  0  0  0  0  0  0  0  0  0  0  0
  -23.1748   -5.6837    5.0719 C   0  0  0  0  0  0  0  0  0  0  0  0
  -14.9829   -5.9972    5.2385 C   0  0  0  0  0  0  0  0  0  0  0  0
  -13.5617   -5.9833    5.3094 C   0  0  0  0  0  0  0  0  0  0  0  0
  -25.4051   -4.9515    5.2375 O   0  0  0  0  0  0  0  0  0  0  0  0
  -19.7116   -5.8612    6.3191 C   0  0  0  0  0  0  0  0  0  0  0  0
  -21.1270   -5.7368    6.3115 C   0  0  0  0  0  0  0  0  0  0  0  0
  -11.6587   -1.7324   -3.3463 O   0  0  0  0  0  0  0  0  0  0  0  0
  -26.2142   -3.9019    5.0227 C   0  0  0  0  0  0  0  0  0  0  0  0
  -10.6427   -6.6999    4.9035 N   0  0  0  0  0  0  0  0  0  0  0  0
  -26.1912   -3.4414    3.6836 C   0  0  0  0  0  0  0  0  0  0  0  0
  -17.6570   -5.6619    5.2195 C   0  0  0  0  0  0  0  0  0  0  0  0
  -11.8029   -2.0195   -1.0178 C   0  0  0  0  0  0  0  0  0  0  0  0
  -11.2732   -7.7388    3.1186 N   0  0  0  0  0  0  0  0  0  0  0  0
  -11.7146   -6.9253    4.1711 C   0  0  0  0  0  0  0  0  0  0  0  0
  1  4  1  0
  1 13  1  0
  2  4  1  0
  2 14  1  0
  2 19  1  0
  3  7  1  0
  3 14  1  0
  3 17  1  0
  5 10  1  0
  5 24  1  0
  6  8  1  0
  6 26  1  0
  7 11  1  0
  8 22  1  0
  9 20  1  0
  9 25  1  0
 10 15  2  3
 11 23  1  0
 12 16  1  0
 12 27  2  3
 13 18  1  0
 13 24  1  0
 15 16  1  0
 17 21  1  0
 18 19  2  0
 21 23  1  0
 22 27  1  0
 26 27  1  0
M  END
$$$$
