
     RDKit          3D

 12 12  0  0  0  0  0  0  0  0999 V2000
  -17.8537   -4.9313    5.1353 C   0  0  0  0  0  0  0  0  0  0  0  0
  -18.7155   -7.4253    4.2458 C   0  0  0  0  0  0  0  0  0  0  0  0
  -17.4113   -7.0540    4.0629 C   0  0  0  0  0  0  0  0  0  0  0  0
  -12.6361   -6.4872    4.6762 C   0  0  0  0  0  0  0  0  0  0  0  0
  -19.5904   -6.5474    4.8703 C   0  0  0  0  0  0  0  0  0  0  0  0
  -17.0044   -5.8118    4.5000 C   0  0  0  0  0  0  0  0  0  0  0  0
  -14.0025   -6.2345    4.3053 N   0  0  0  0  0  0  0  0  0  0  0  0
  -12.2695   -6.5804    5.8170 O   0  0  0  0  0  0  0  0  0  0  0  0
  -11.8554   -6.7096    3.6055 N   0  0  0  0  0  0  0  0  0  0  0  0
  -19.1569   -5.3064    5.3138 C   0  0  0  0  0  0  0  0  0  0  0  0
  -14.8444   -6.3927    5.3236 C   0  0  0  0  0  0  0  0  0  0  0  0
  -15.5530   -5.4444    4.3994 C   0  0  0  0  0  0  0  0  0  0  0  0
  1  6  1  0
  1 10  2  0
  2  3  2  0
  2  5  1  0
  3  6  1  0
  4  7  1  0
  4  8  2  0
  4  9  1  0
  5 10  1  0
  6 12  1  0
  7 11  1  0
 11 12  1  0
M  END
$$$$
