
     RDKit          3D

 13 13  0  0  0  0  0  0  0  0999 V2000
  -12.0399   -6.8220    3.3502 O   0  0  0  0  0  0  0  0  0  0  0  0
  -11.5548   -6.9454    5.5009 O   0  0  0  0  0  0  0  0  0  0  0  0
  -18.8408   -6.3327    4.0493 C   0  0  0  0  0  0  0  0  0  0  0  0
  -18.6449   -6.5085    5.3907 C   0  0  0  0  0  0  0  0  0  0  0  0
  -16.5016   -6.2319    3.6740 C   0  0  0  0  0  0  0  0  0  0  0  0
  -17.7788   -6.1990    3.1980 C   0  0  0  0  0  0  0  0  0  0  0  0
  -13.7807   -6.1710    4.8222 C   0  0  0  0  0  0  0  0  0  0  0  0
  -17.3623   -6.5452    5.9208 C   0  0  0  0  0  0  0  0  0  0  0  0
  -19.6909   -6.6610    6.1478 F   0  0  0  0  0  0  0  0  0  0  0  0
  -14.9039   -6.8795    5.3922 C   0  0  0  0  0  0  0  0  0  0  0  0
  -16.2630   -6.4918    5.0081 C   0  0  0  0  0  0  0  0  0  0  0  0
  -12.3558   -6.6754    4.5913 C   0  0  0  0  0  0  0  0  0  0  0  0
  -13.5962   -4.9654    5.5820 N   0  0  0  0  0  0  0  0  0  0  0  0
  1 12  2  0
  2 12  1  0
  3  4  1  0
  3  6  2  0
  4  8  2  0
  4  9  1  0
  5  6  1  0
  5 11  2  0
  7 10  1  0
  7 12  1  0
  7 13  1  0
  8 11  1  0
 10 11  1  0
M  END
$$$$
