
     RDKit          3D

 12 12  0  0  0  0  0  0  0  0999 V2000
  -18.6340   -5.4678    5.5417 C   0  0  0  0  0  0  0  0  0  0  0  0
  -14.0663   -6.4214    4.2827 N   0  0  0  0  0  0  0  0  0  0  0  0
  -18.1613   -6.1664    3.3251 C   0  0  0  0  0  0  0  0  0  0  0  0
  -17.3096   -5.5862    5.8655 C   0  0  0  0  0  0  0  0  0  0  0  0
  -14.9884   -6.1086    5.2462 C   0  0  0  0  0  0  0  0  0  0  0  0
  -20.3673   -5.6146    3.9230 O   0  0  0  0  0  0  0  0  0  0  0  0
  -12.4360   -6.6975    5.9254 O   0  0  0  0  0  0  0  0  0  0  0  0
  -16.8279   -6.2926    3.6388 C   0  0  0  0  0  0  0  0  0  0  0  0
  -16.3737   -6.0099    4.9103 C   0  0  0  0  0  0  0  0  0  0  0  0
  -12.7085   -6.5597    4.7497 C   0  0  0  0  0  0  0  0  0  0  0  0
  -19.0688   -5.7454    4.2695 C   0  0  0  0  0  0  0  0  0  0  0  0
  -11.8614   -6.7214    3.8004 O   0  0  0  0  0  0  0  0  0  0  0  0
  1  4  2  0
  1 11  1  0
  2  5  2  3
  2 10  1  0
  3  8  1  0
  3 11  2  0
  4  9  1  0
  5  9  1  0
  6 11  1  0
  7 10  2  0
  8  9  2  0
 10 12  1  0
M  END
$$$$
