
     RDKit          3D

 27 30  0  0  0  0  0  0  0  0999 V2000
  -17.9931   -5.6288    4.8381 C   0  0  0  0  0  0  0  0  0  0  0  0
  -12.8921   -6.5709    3.7322 N   0  0  0  0  0  0  0  0  0  0  0  0
  -20.1738   -7.8995    1.2352 O   0  0  0  0  0  0  0  0  0  0  0  0
  -23.1379   -8.8938    2.9586 C   0  0  0  0  0  0  0  0  0  0  0  0
  -16.2431   -6.7234    4.0122 N   0  0  0  0  0  0  0  0  0  0  0  0
  -24.4681   -6.5486    0.7699 O   0  0  0  0  0  0  0  0  0  0  0  0
  -14.5069   -5.7134    5.4310 C   0  0  0  0  0  0  0  0  0  0  0  0
  -24.4193   -7.6484    1.4955 C   0  0  0  0  0  0  0  0  0  0  0  0
  -19.6631   -4.3229    5.7887 F   0  0  0  0  0  0  0  0  0  0  0  0
  -23.0913   -8.1354    1.6620 C   0  0  0  0  0  0  0  0  0  0  0  0
  -13.2873   -6.2123    4.9708 C   0  0  0  0  0  0  0  0  0  0  0  0
  -25.2409   -8.3418    2.2608 O   0  0  0  0  0  0  0  0  0  0  0  0
  -24.4944   -9.0570    3.2519 C   0  0  0  0  0  0  0  0  0  0  0  0
  -15.7859   -5.8733    4.9492 C   0  0  0  0  0  0  0  0  0  0  0  0
  -18.5754   -7.3288    3.2595 C   0  0  0  0  0  0  0  0  0  0  0  0
  -22.0054   -9.5568    3.7138 C   0  0  0  0  0  0  0  0  0  0  0  0
  -11.1283   -6.6085    5.0822 N   0  0  0  0  0  0  0  0  0  0  0  0
  -16.8428   -5.1716    5.4473 C   0  0  0  0  0  0  0  0  0  0  0  0
  -23.5777   -6.5588   -0.3650 C   0  0  0  0  0  0  0  0  0  0  0  0
  -20.2886   -5.9134    4.2279 N   0  0  0  0  0  0  0  0  0  0  0  0
  -12.1629   -6.2324    5.7914 N   0  0  0  0  0  0  0  0  0  0  0  0
  -19.9225   -6.8903    3.3192 C   0  0  0  0  0  0  0  0  0  0  0  0
  -19.3417   -5.2752    4.9737 C   0  0  0  0  0  0  0  0  0  0  0  0
  -20.8480   -7.4378    2.3460 C   0  0  0  0  0  0  0  0  0  0  0  0
  -11.5570   -6.7978    3.8055 N   0  0  0  0  0  0  0  0  0  0  0  0
  -17.6255   -6.6467    3.9587 C   0  0  0  0  0  0  0  0  0  0  0  0
  -22.1589   -6.9151    1.9330 C   0  0  0  0  0  0  0  0  0  0  0  0
  1 18  1  0
  1 23  1  0
  1 26  1  0
  2 11  2  0
  2 25  1  0
  3 24  1  0
  4 10  1  0
  4 13  1  0
  4 16  1  0
  5 14  1  0
  5 26  1  0
  6  8  1  0
  6 19  1  0
  7 11  1  0
  7 14  2  3
  8 10  1  0
  8 12  1  0
  9 23  1  0
 10 27  1  0
 11 21  1  0
 12 13  1  0
 14 18  1  0
 15 22  1  0
 15 26  2  0
 17 21  1  0
 17 25  1  0
 20 22  1  0
 20 23  2  0
 22 24  1  0
 24 27  1  0
M  END
$$$$
