
     RDKit          3D

 19 22  0  0  0  0  0  0  0  0999 V2000
  -17.9400   15.7735  -28.0431 C   0  0  0  0  0  0  0  0  0  0  0  0
  -20.0291   16.2864  -28.6835 C   0  0  0  0  0  0  0  0  0  0  0  0
  -24.3948   15.3706  -29.1248 N   0  0  0  0  0  0  0  0  0  0  0  0
  -21.2084   17.8997  -30.2359 C   0  0  0  0  0  0  0  0  0  0  0  0
  -14.3125   16.2065  -28.3815 C   0  0  0  0  0  0  0  0  0  0  0  0
  -18.7762   15.3569  -27.0336 C   0  0  0  0  0  0  0  0  0  0  0  0
  -24.4760   16.2806  -30.1547 C   0  0  0  0  0  0  0  0  0  0  0  0
  -22.4065   16.2718  -29.3122 C   0  0  0  0  0  0  0  0  0  0  0  0
  -15.7638   15.1324  -26.9848 C   0  0  0  0  0  0  0  0  0  0  0  0
  -14.3354   15.4304  -27.2267 C   0  0  0  0  0  0  0  0  0  0  0  0
  -22.5546   18.0115  -30.6823 C   0  0  0  0  0  0  0  0  0  0  0  0
  -22.9407   14.9957  -27.3978 N   0  0  0  0  0  0  0  0  0  0  0  0
  -23.2235   15.4501  -28.5472 C   0  0  0  0  0  0  0  0  0  0  0  0
  -20.0550   15.7000  -27.4133 C   0  0  0  0  0  0  0  0  0  0  0  0
  -21.1208   16.8342  -29.3955 C   0  0  0  0  0  0  0  0  0  0  0  0
  -23.2608   16.9012  -30.3031 C   0  0  0  0  0  0  0  0  0  0  0  0
  -16.4838   15.7528  -27.9655 C   0  0  0  0  0  0  0  0  0  0  0  0
  -18.7415   16.2916  -29.1007 C   0  0  0  0  0  0  0  0  0  0  0  0
  -15.6732   16.4252  -28.8300 C   0  0  0  0  0  0  0  0  0  0  0  0
  1  6  1  0
  1 17  2  3
  1 18  1  0
  2 14  1  0
  2 15  1  0
  2 18  1  0
  3  7  1  0
  3 13  1  0
  4 11  1  0
  4 15  1  0
  5 10  1  0
  5 19  1  0
  6 14  1  0
  7 16  1  0
  8 13  1  0
  8 15  1  0
  8 16  1  0
  9 10  1  0
  9 17  1  0
 11 16  1  0
 12 13  2  0
 17 19  1  0
M  END
$$$$
