
     RDKit          3D

 28 30  0  0  0  0  0  0  0  0999 V2000
  -24.2447   16.9324  -27.9696 C   0  0  0  0  0  0  0  0  0  0  0  0
  -19.8130   19.3856  -29.1704 C   0  0  0  0  0  0  0  0  0  0  0  0
  -16.4693   16.7893  -28.0780 C   0  0  0  0  0  0  0  0  0  0  0  0
  -22.0113   17.1868  -27.6741 C   0  0  0  0  0  0  0  0  0  0  0  0
  -20.8682   17.1076  -26.7909 O   0  0  0  0  0  0  0  0  0  0  0  0
  -16.7102   15.5709  -27.6248 C   0  0  0  0  0  0  0  0  0  0  0  0
  -16.0773   17.6786  -28.5242 N   0  0  0  0  0  0  0  0  0  0  0  0
  -20.8153   19.6410  -26.3194 C   0  0  0  0  0  0  0  0  0  0  0  0
  -18.8929   15.5474  -28.4388 N   0  0  0  0  0  0  0  0  0  0  0  0
  -21.9468   17.9950  -28.8391 C   0  0  0  0  0  0  0  0  0  0  0  0
  -19.6669   15.7686  -32.5992 C   0  0  0  0  0  0  0  0  0  0  0  0
  -14.3988   15.3032  -27.1289 N   0  0  0  0  0  0  0  0  0  0  0  0
  -24.3173   17.8321  -28.9538 N   0  0  0  0  0  0  0  0  0  0  0  0
  -20.4759   18.2379  -25.9835 C   0  0  0  0  0  0  0  0  0  0  0  0
  -20.7872   18.3702  -29.5590 N   0  0  0  0  0  0  0  0  0  0  0  0
  -20.0873   15.7496  -28.9499 O   0  0  0  0  0  0  0  0  0  0  0  0
  -14.1906   16.5398  -27.6015 N   0  0  0  0  0  0  0  0  0  0  0  0
  -20.2688   18.0051  -31.9181 C   0  0  0  0  0  0  0  0  0  0  0  0
  -15.6271   14.7601  -27.2198 C   0  0  0  0  0  0  0  0  0  0  0  0
  -18.0263   14.9420  -27.6353 C   0  0  0  0  0  0  0  0  0  0  0  0
  -15.8209   13.3309  -26.9755 C   0  0  0  0  0  0  0  0  0  0  0  0
  -23.1021   16.5853  -27.3298 N   0  0  0  0  0  0  0  0  0  0  0  0
  -19.7861   15.3232  -31.2915 C   0  0  0  0  0  0  0  0  0  0  0  0
  -23.1476   18.3712  -29.3739 C   0  0  0  0  0  0  0  0  0  0  0  0
  -15.0913   17.2904  -28.1255 C   0  0  0  0  0  0  0  0  0  0  0  0
  -19.9080   17.1135  -32.9170 C   0  0  0  0  0  0  0  0  0  0  0  0
  -20.1233   16.2085  -30.3427 C   0  0  0  0  0  0  0  0  0  0  0  0
  -20.4122   17.5726  -30.6388 C   0  0  0  0  0  0  0  0  0  0  0  0
  1 13  2  0
  1 22  1  0
  2 15  1  0
  3  6  1  0
  3  7  1  0
  4  5  1  0
  4 10  1  0
  4 22  2  0
  5 14  1  0
  6 19  2  0
  6 20  1  0
  7 25  1  0
  8 14  1  0
  9 16  1  0
  9 20  1  0
 10 15  1  0
 10 24  2  0
 11 23  1  0
 11 26  2  0
 12 17  2  0
 12 19  1  0
 13 24  1  0
 15 28  1  0
 16 27  1  0
 17 25  1  0
 18 26  1  0
 18 28  2  0
 19 21  1  0
 23 27  2  0
 27 28  1  0
M  END
$$$$
