
     RDKit          3D

 20 21  0  0  0  0  0  0  0  0999 V2000
  -18.3996   15.0656  -29.5884 C   0  0  0  0  0  0  0  0  0  0  0  0
  -19.4560   14.6705  -32.7587 C   0  0  0  0  0  0  0  0  0  0  0  0
  -20.3961   13.6537  -32.9163 C   0  0  0  0  0  0  0  0  0  0  0  0
  -18.6758   16.2861  -30.1162 C   0  0  0  0  0  0  0  0  0  0  0  0
  -19.9944   15.8211  -32.1417 N   0  0  0  0  0  0  0  0  0  0  0  0
  -17.6326   14.9295  -28.4172 C   0  0  0  0  0  0  0  0  0  0  0  0
  -20.1187   20.6372  -29.8536 N   0  0  0  0  0  0  0  0  0  0  0  0
  -19.3220   18.0119  -31.5177 C   0  0  0  0  0  0  0  0  0  0  0  0
  -18.2070   14.6141  -32.8072 O   0  0  0  0  0  0  0  0  0  0  0  0
  -19.1984   16.6235  -31.4364 C   0  0  0  0  0  0  0  0  0  0  0  0
  -18.4048   17.4128  -29.4172 C   0  0  0  0  0  0  0  0  0  0  0  0
  -17.6218   17.3197  -28.2276 C   0  0  0  0  0  0  0  0  0  0  0  0
  -18.9822   18.5073  -30.1052 C   0  0  0  0  0  0  0  0  0  0  0  0
  -18.1174   20.4510  -30.7565 O   0  0  0  0  0  0  0  0  0  0  0  0
  -16.2791   15.9785  -26.5500 C   0  0  0  0  0  0  0  0  0  0  0  0
  -19.0643   19.8970  -30.0722 C   0  0  0  0  0  0  0  0  0  0  0  0
  -15.4844   14.8977  -26.4400 O   0  0  0  0  0  0  0  0  0  0  0  0
  -16.1229   17.1071  -25.7320 C   0  0  0  0  0  0  0  0  0  0  0  0
  -17.1720   16.0626  -27.7278 C   0  0  0  0  0  0  0  0  0  0  0  0
  -20.0108   22.1233  -29.9569 C   0  0  0  0  0  0  0  0  0  0  0  0
  1  4  1  0
  1  6  2  0
  2  3  1  0
  2  5  1  0
  2  9  2  0
  4 10  1  0
  4 11  2  0
  5 10  1  0
  6 19  1  0
  7 16  1  0
  7 20  1  0
  8 10  1  0
  8 13  1  0
 11 12  1  0
 11 13  1  0
 12 19  2  0
 13 16  1  0
 14 16  2  0
 15 17  1  0
 15 18  1  0
 15 19  1  0
M  END
$$$$
