
     RDKit          3D

 29 32  0  0  0  0  0  0  0  0999 V2000
  -16.1695   15.4800  -27.2972 C   0  0  0  0  0  0  0  0  0  0  0  0
  -19.3455   18.0553  -26.8101 C   0  0  0  0  0  0  0  0  0  0  0  0
  -19.2936   16.6036  -28.7855 N   0  0  0  0  0  0  0  0  0  0  0  0
  -14.7552   13.0943  -27.5072 C   0  0  0  0  0  0  0  0  0  0  0  0
  -20.8877   17.4602  -25.0056 C   0  0  0  0  0  0  0  0  0  0  0  0
  -20.4746   15.8894  -26.7835 C   0  0  0  0  0  0  0  0  0  0  0  0
  -16.0066   13.2084  -28.1470 C   0  0  0  0  0  0  0  0  0  0  0  0
  -20.0208   18.4086  -25.6066 C   0  0  0  0  0  0  0  0  0  0  0  0
  -19.8031   16.0602  -31.1908 C   0  0  0  0  0  0  0  0  0  0  0  0
  -19.2012   17.1718  -31.7381 C   0  0  0  0  0  0  0  0  0  0  0  0
  -17.8731   14.7312  -28.5358 N   0  0  0  0  0  0  0  0  0  0  0  0
  -20.0623   16.0606  -29.7900 N   0  0  0  0  0  0  0  0  0  0  0  0
  -18.9781   15.9868  -33.8332 N   0  0  0  0  0  0  0  0  0  0  0  0
  -18.2618   16.0655  -28.0118 C   0  0  0  0  0  0  0  0  0  0  0  0
  -19.7508   19.6361  -25.0594 O   0  0  0  0  0  0  0  0  0  0  0  0
  -16.8402   20.5989  -27.8065 C   0  0  0  0  0  0  0  0  0  0  0  0
  -19.5982   14.8571  -33.2576 C   0  0  0  0  0  0  0  0  0  0  0  0
  -18.4777   18.9785  -27.4193 O   0  0  0  0  0  0  0  0  0  0  0  0
  -16.5460   18.8479  -29.4654 O   0  0  0  0  0  0  0  0  0  0  0  0
  -16.0258   19.5353  -28.3677 C   0  0  0  0  0  0  0  0  0  0  0  0
  -19.4885   16.7259  -27.3898 N   0  0  0  0  0  0  0  0  0  0  0  0
  -18.7583   17.1406  -33.0362 C   0  0  0  0  0  0  0  0  0  0  0  0
  -17.0534   16.4615  -27.3757 N   0  0  0  0  0  0  0  0  0  0  0  0
  -14.2130   14.1556  -26.8066 C   0  0  0  0  0  0  0  0  0  0  0  0
  -14.9340   15.3778  -26.6744 C   0  0  0  0  0  0  0  0  0  0  0  0
  -18.2551   20.2890  -27.7622 C   0  0  0  0  0  0  0  0  0  0  0  0
  -20.0399   14.8965  -31.9228 C   0  0  0  0  0  0  0  0  0  0  0  0
  -21.1112   16.1761  -25.6419 C   0  0  0  0  0  0  0  0  0  0  0  0
  -16.6872   14.3913  -28.0456 C   0  0  0  0  0  0  0  0  0  0  0  0
  1 23  1  0
  1 25  2  0
  1 29  1  0
  2  8  1  0
  2 18  1  0
  2 21  1  0
  3 12  1  0
  3 14  1  0
  3 21  1  0
  4  7  1  0
  4 24  2  0
  5  8  2  0
  5 28  1  0
  6 21  1  0
  6 28  2  0
  7 29  2  0
  8 15  1  0
  9 10  2  0
  9 12  1  0
  9 27  1  0
 10 22  1  0
 11 14  2  0
 11 29  1  0
 13 17  1  0
 13 22  2  0
 14 23  1  0
 16 20  1  0
 16 26  1  0
 17 27  2  0
 18 26  1  0
 19 20  1  0
 24 25  1  0
M  END
$$$$
