
     RDKit          3D

 26 26  0  0  0  0  0  0  0  0999 V2000
  -21.1118   -8.4337    3.7404 C   0  0  0  0  0  0  0  0  0  0  0  0
  -14.5964   -5.6983    4.4997 C   0  0  0  0  0  0  0  0  0  0  0  0
  -20.4921   -6.3810    5.1019 C   0  0  0  0  0  0  0  0  0  0  0  0
  -12.2958   -6.5184    4.9856 C   0  0  0  0  0  0  0  0  0  0  0  0
  -12.3559   -3.4328    0.1584 C   0  0  0  0  0  0  0  0  0  0  0  0
  -11.9222   -4.6389    0.4692 C   0  0  0  0  0  0  0  0  0  0  0  0
  -12.6962   -6.8548    6.1475 O   0  0  0  0  0  0  0  0  0  0  0  0
  -10.6296   -6.7154    3.2577 N   0  0  0  0  0  0  0  0  0  0  0  0
  -10.9837   -6.6120    4.5749 N   0  0  0  0  0  0  0  0  0  0  0  0
  -11.9384   -3.1810   -2.1617 C   0  0  0  0  0  0  0  0  0  0  0  0
  -21.7315   -5.8841    5.3894 N   0  0  0  0  0  0  0  0  0  0  0  0
  -11.2649   -6.3136    2.2607 C   0  0  0  0  0  0  0  0  0  0  0  0
  -16.9233   -5.6361    5.0978 C   0  0  0  0  0  0  0  0  0  0  0  0
  -11.9682   -2.2081   -3.2124 C   0  0  0  0  0  0  0  0  0  0  0  0
  -13.2862   -6.2513    3.9920 C   0  0  0  0  0  0  0  0  0  0  0  0
  -12.0484   -5.3781    1.7206 C   0  0  0  0  0  0  0  0  0  0  0  0
  -11.8240   -1.0992   -3.3556 N   0  0  0  0  0  0  0  0  0  0  0  0
  -22.7939   -6.7413    4.8699 C   0  0  0  0  0  0  0  0  0  0  0  0
  -11.9722   -2.6926   -0.8510 C   0  0  0  0  0  0  0  0  0  0  0  0
  -22.2852   -9.0932    4.4674 C   0  0  0  0  0  0  0  0  0  0  0  0
  -20.2725   -7.8030    4.8353 C   0  0  0  0  0  0  0  0  0  0  0  0
  -19.2557   -5.6771    5.3708 C   0  0  0  0  0  0  0  0  0  0  0  0
  -22.7961   -8.0715    5.3346 O   0  0  0  0  0  0  0  0  0  0  0  0
  -19.1019   -5.0045    6.4384 O   0  0  0  0  0  0  0  0  0  0  0  0
  -15.8057   -6.6284    4.7337 C   0  0  0  0  0  0  0  0  0  0  0  0
  -18.1920   -6.1957    4.6672 O   0  0  0  0  0  0  0  0  0  0  0  0
  1 20  1  0
  1 21  1  0
  2 15  1  0
  2 25  1  0
  3 11  1  0
  3 21  1  0
  3 22  1  0
  4  7  2  0
  4  9  1  0
  4 15  1  0
  5  6  2  3
  5 19  1  0
  6 16  1  0
  8  9  1  0
  8 12  1  0
 10 14  1  0
 10 19  1  0
 11 18  1  0
 12 16  1  0
 13 25  1  0
 13 26  1  0
 14 17  2  0
 18 23  1  0
 20 23  1  0
 22 24  2  0
 22 26  1  0
M  END
$$$$
