
     RDKit          3D

 11 11  0  0  0  0  0  0  0  0999 V2000
  -11.6976   -7.0574    5.8304 O   0  0  0  0  0  0  0  0  0  0  0  0
  -13.3027   -5.6542    5.1438 N   0  0  0  0  0  0  0  0  0  0  0  0
  -15.6655   -6.2807    4.7102 C   0  0  0  0  0  0  0  0  0  0  0  0
  -11.8236   -6.6408    3.6757 O   0  0  0  0  0  0  0  0  0  0  0  0
  -16.2985   -6.1407    5.9673 C   0  0  0  0  0  0  0  0  0  0  0  0
  -12.1104   -6.4417    4.8720 C   0  0  0  0  0  0  0  0  0  0  0  0
  -16.4844   -6.2720    3.5616 C   0  0  0  0  0  0  0  0  0  0  0  0
  -18.4323   -6.2564    4.9115 C   0  0  0  0  0  0  0  0  0  0  0  0
  -17.8325   -6.3051    3.7120 C   0  0  0  0  0  0  0  0  0  0  0  0
  -17.6717   -6.1856    6.0683 C   0  0  0  0  0  0  0  0  0  0  0  0
  -14.3073   -6.5109    4.5557 C   0  0  0  0  0  0  0  0  0  0  0  0
  1  6  2  0
  2  6  1  0
  2 11  1  0
  3  5  1  0
  3  7  2  0
  3 11  1  0
  4  6  1  0
  5 10  2  0
  7  9  1  0
  8  9  2  0
  8 10  1  0
M  END
$$$$
