
     RDKit          3D

 28 31  0  0  0  0  0  0  0  0999 V2000
  -20.9274   -6.4097    1.6224 C   0  0  0  0  0  0  0  0  0  0  0  0
  -11.6232   -7.1383    2.9968 O   0  0  0  0  0  0  0  0  0  0  0  0
  -13.8005   -6.5121    4.3391 N   0  0  0  0  0  0  0  0  0  0  0  0
  -24.1362   -6.0311   -0.5801 C   0  0  0  0  0  0  0  0  0  0  0  0
  -23.0360   -3.9914    0.1116 C   0  0  0  0  0  0  0  0  0  0  0  0
  -22.5530   -7.5265    3.4391 C   0  0  0  0  0  0  0  0  0  0  0  0
  -12.5106   -5.5339    5.8790 N   0  0  0  0  0  0  0  0  0  0  0  0
  -18.7734   -5.5789    3.8887 C   0  0  0  0  0  0  0  0  0  0  0  0
  -11.4111   -6.8473    4.2626 C   0  0  0  0  0  0  0  0  0  0  0  0
  -10.2952   -7.0116    4.8516 O   0  0  0  0  0  0  0  0  0  0  0  0
  -17.2829   -6.2839    5.6895 C   0  0  0  0  0  0  0  0  0  0  0  0
  -19.5254   -8.3048    3.0521 O   0  0  0  0  0  0  0  0  0  0  0  0
  -21.7125   -7.8206    5.8783 C   0  0  0  0  0  0  0  0  0  0  0  0
  -22.6231   -6.7240   -0.2865 C   0  0  0  0  0  0  0  0  0  0  0  0
  -22.1878   -6.1426    0.9680 C   0  0  0  0  0  0  0  0  0  0  0  0
  -19.9636   -6.2127    5.9361 C   0  0  0  0  0  0  0  0  0  0  0  0
  -23.4451   -4.7590   -1.1285 C   0  0  0  0  0  0  0  0  0  0  0  0
  -14.9395   -5.9258    5.0219 C   0  0  0  0  0  0  0  0  0  0  0  0
  -21.4229   -8.3861    4.4568 C   0  0  0  0  0  0  0  0  0  0  0  0
  -21.3490   -6.5190    3.1384 C   0  0  0  0  0  0  0  0  0  0  0  0
  -17.7662   -5.0346    4.8931 C   0  0  0  0  0  0  0  0  0  0  0  0
  -22.1086   -5.6439   -1.4305 C   0  0  0  0  0  0  0  0  0  0  0  0
  -20.3158   -7.5112    3.8256 C   0  0  0  0  0  0  0  0  0  0  0  0
  -21.4830   -6.2613    5.7899 C   0  0  0  0  0  0  0  0  0  0  0  0
  -16.1727   -6.8198    4.7777 C   0  0  0  0  0  0  0  0  0  0  0  0
  -22.7402   -4.8178    1.2784 C   0  0  0  0  0  0  0  0  0  0  0  0
  -12.5879   -6.4507    4.9989 C   0  0  0  0  0  0  0  0  0  0  0  0
  -19.5061   -6.6323    4.5931 C   0  0  0  0  0  0  0  0  0  0  0  0
  1 15  1  0
  1 20  1  0
  2  9  2  0
  3 18  1  0
  3 27  1  0
  4 14  1  0
  4 17  1  0
  5 17  1  0
  5 26  1  0
  6 19  1  0
  6 20  1  0
  7 27  2  0
  8 21  1  0
  8 28  1  0
  9 10  1  0
  9 27  1  0
 11 21  1  0
 11 25  1  0
 12 23  1  0
 13 19  1  0
 13 24  1  0
 14 15  1  0
 14 22  1  0
 15 26  1  0
 16 24  1  0
 16 28  1  0
 17 22  1  0
 18 25  1  0
 19 23  1  0
 20 23  1  0
 23 28  1  0
M  END
$$$$
