
     RDKit          3D

 10 10  0  0  0  0  0  0  0  0999 V2000
  -18.8739   -6.3295    4.4051 C   0  0  0  0  0  0  0  0  0  0  0  0
  -18.1054   -7.4395    4.3878 C   0  0  0  0  0  0  0  0  0  0  0  0
  -12.7743   -5.8588    5.8047 O   0  0  0  0  0  0  0  0  0  0  0  0
  -16.2129   -5.9367    4.4768 C   0  0  0  0  0  0  0  0  0  0  0  0
  -13.4782   -6.3159    4.8349 C   0  0  0  0  0  0  0  0  0  0  0  0
  -17.0549   -4.8691    4.4914 C   0  0  0  0  0  0  0  0  0  0  0  0
  -14.7622   -5.7180    4.5374 C   0  0  0  0  0  0  0  0  0  0  0  0
  -12.7774   -6.9238    3.9370 O   0  0  0  0  0  0  0  0  0  0  0  0
  -16.7204   -7.2508    4.4458 C   0  0  0  0  0  0  0  0  0  0  0  0
  -18.4237   -5.0531    4.3958 C   0  0  0  0  0  0  0  0  0  0  0  0
  1  2  2  0
  1 10  1  0
  2  9  1  0
  3  5  2  0
  4  6  1  0
  4  7  1  0
  4  9  2  0
  5  7  1  0
  5  8  1  0
  6 10  2  0
M  END
$$$$
