
     RDKit          3D

  9  9  0  0  0  0  0  0  0  0999 V2000
  -12.2548   -6.7636    3.7426 O   0  0  0  0  0  0  0  0  0  0  0  0
  -12.7580   -6.5415    4.8576 C   0  0  0  0  0  0  0  0  0  0  0  0
  -17.6518   -6.0762    5.4601 C   0  0  0  0  0  0  0  0  0  0  0  0
  -16.2894   -5.6862    3.5665 C   0  0  0  0  0  0  0  0  0  0  0  0
  -15.4004   -6.2100    4.5567 C   0  0  0  0  0  0  0  0  0  0  0  0
  -12.1271   -6.8105    5.9175 O   0  0  0  0  0  0  0  0  0  0  0  0
  -17.6237   -5.5731    4.1075 N   0  0  0  0  0  0  0  0  0  0  0  0
  -14.0496   -5.8913    4.9391 C   0  0  0  0  0  0  0  0  0  0  0  0
  -16.2156   -6.3796    5.7780 C   0  0  0  0  0  0  0  0  0  0  0  0
  1  2  2  0
  2  6  1  0
  2  8  1  0
  3  7  1  0
  3  9  1  0
  4  5  1  0
  4  7  1  0
  5  8  1  0
  5  9  1  0
M  END
$$$$
