
     RDKit          3D

 21 22  0  0  0  0  0  0  0  0999 V2000
   -8.5327    6.1767  -27.7919 C   0  0  0  0  0  0  0  0  0  0  0  0
  -10.5988    4.6664  -26.8214 C   0  0  0  0  0  0  0  0  0  0  0  0
   -9.4470    3.6455  -30.3016 C   0  0  0  0  0  0  0  0  0  0  0  0
   -7.8338    3.1896  -32.0457 C   0  0  0  0  0  0  0  0  0  0  0  0
   -8.6032    4.7917  -28.4007 C   0  0  0  0  0  0  0  0  0  0  0  0
  -11.2749    5.8807  -26.4483 O   0  0  0  0  0  0  0  0  0  0  0  0
  -11.3301    2.6136  -29.3687 O   0  0  0  0  0  0  0  0  0  0  0  0
   -9.3751    3.4165  -31.8123 C   0  0  0  0  0  0  0  0  0  0  0  0
   -7.2293    3.8248  -30.7900 C   0  0  0  0  0  0  0  0  0  0  0  0
   -6.0801    3.7676  -30.0575 O   0  0  0  0  0  0  0  0  0  0  0  0
   -8.5139    5.8302  -30.7195 O   0  0  0  0  0  0  0  0  0  0  0  0
  -10.1145    2.1538  -32.1433 C   0  0  0  0  0  0  0  0  0  0  0  0
   -7.6215    3.8297  -33.3047 O   0  0  0  0  0  0  0  0  0  0  0  0
   -9.9261    4.0779  -28.0288 C   0  0  0  0  0  0  0  0  0  0  0  0
   -9.0023    6.8632  -26.6731 N   0  0  0  0  0  0  0  0  0  0  0  0
   -5.7107    2.0182  -32.0582 O   0  0  0  0  0  0  0  0  0  0  0  0
   -9.3352    1.0638  -32.6601 O   0  0  0  0  0  0  0  0  0  0  0  0
   -7.0666    1.9220  -32.1964 C   0  0  0  0  0  0  0  0  0  0  0  0
   -7.8132    7.0115  -28.4783 O   0  0  0  0  0  0  0  0  0  0  0  0
   -8.3262    4.5978  -29.9373 C   0  0  0  0  0  0  0  0  0  0  0  0
  -10.4950    3.6432  -29.3328 C   0  0  0  0  0  0  0  0  0  0  0  0
  1  5  1  0
  1 15  1  0
  1 19  2  0
  2  6  1  0
  2 14  1  0
  3  8  1  0
  3 20  1  0
  3 21  1  0
  4  8  1  0
  4  9  1  0
  4 13  1  0
  4 18  1  0
  5 14  1  0
  5 20  1  0
  7 21  1  0
  8 12  1  0
  9 10  1  0
  9 20  1  0
 11 20  1  0
 12 17  1  0
 14 21  1  0
 16 18  1  0
M  END
$$$$
