
     RDKit          3D

 19 19  0  0  0  0  0  0  0  0999 V2000
   -9.7737    4.0954  -28.5246 C   0  0  0  0  0  0  0  0  0  0  0  0
   -8.2614    4.6584  -31.1811 O   0  0  0  0  0  0  0  0  0  0  0  0
   -7.5262    4.9613  -28.9064 C   0  0  0  0  0  0  0  0  0  0  0  0
   -8.3563    2.3277  -31.6906 C   0  0  0  0  0  0  0  0  0  0  0  0
   -7.1255    2.7007  -32.5233 C   0  0  0  0  0  0  0  0  0  0  0  0
  -12.0619    3.8441  -30.9473 O   0  0  0  0  0  0  0  0  0  0  0  0
  -11.4039    3.1660  -30.1302 C   0  0  0  0  0  0  0  0  0  0  0  0
   -6.0319    2.0580  -32.2570 O   0  0  0  0  0  0  0  0  0  0  0  0
   -7.3305    3.5398  -33.4852 O   0  0  0  0  0  0  0  0  0  0  0  0
   -7.9066    7.3968  -28.0504 O   0  0  0  0  0  0  0  0  0  0  0  0
   -7.2761    4.3302  -30.2035 C   0  0  0  0  0  0  0  0  0  0  0  0
   -9.9271    3.4574  -29.9444 C   0  0  0  0  0  0  0  0  0  0  0  0
   -8.7593    6.3404  -27.3990 C   0  0  0  0  0  0  0  0  0  0  0  0
   -9.0453    1.2755  -32.2996 O   0  0  0  0  0  0  0  0  0  0  0  0
   -6.1153    3.7561  -30.2422 O   0  0  0  0  0  0  0  0  0  0  0  0
  -10.9917    4.3719  -27.8725 O   0  0  0  0  0  0  0  0  0  0  0  0
   -8.9860    5.4277  -28.6357 C   0  0  0  0  0  0  0  0  0  0  0  0
   -9.2516    3.5440  -31.3816 C   0  0  0  0  0  0  0  0  0  0  0  0
  -11.7682    2.0906  -29.5522 O   0  0  0  0  0  0  0  0  0  0  0  0
  1 12  1  0
  1 16  1  0
  1 17  1  0
  2 11  1  0
  2 18  1  0
  3 11  1  0
  3 17  1  0
  4  5  1  0
  4 14  1  0
  4 18  1  0
  5  8  2  0
  5  9  1  0
  6  7  2  0
  7 12  1  0
  7 19  1  0
 10 13  1  0
 11 15  2  0
 12 18  1  0
 13 17  1  0
M  END
$$$$
