
     RDKit          3D

 17 17  0  0  0  0  0  0  0  0999 V2000
   -7.8547    5.4638  -28.4941 C   0  0  0  0  0  0  0  0  0  0  0  0
   -8.8803    6.0029  -30.6391 O   0  0  0  0  0  0  0  0  0  0  0  0
   -9.2023    3.4256  -31.6104 C   0  0  0  0  0  0  0  0  0  0  0  0
   -6.4015    4.0230  -30.4377 O   0  0  0  0  0  0  0  0  0  0  0  0
   -5.9700    1.7412  -32.0279 O   0  0  0  0  0  0  0  0  0  0  0  0
   -8.0720    2.5438  -31.1196 C   0  0  0  0  0  0  0  0  0  0  0  0
   -9.6570    4.0850  -29.0634 C   0  0  0  0  0  0  0  0  0  0  0  0
   -9.9872    2.4183  -32.4513 O   0  0  0  0  0  0  0  0  0  0  0  0
  -10.7666    3.4188  -29.5678 O   0  0  0  0  0  0  0  0  0  0  0  0
   -9.1228    6.8209  -26.8638 O   0  0  0  0  0  0  0  0  0  0  0  0
  -11.1425    5.2059  -27.1258 O   0  0  0  0  0  0  0  0  0  0  0  0
   -7.1311    2.2335  -32.2855 C   0  0  0  0  0  0  0  0  0  0  0  0
   -7.2822    2.9257  -33.3552 O   0  0  0  0  0  0  0  0  0  0  0  0
   -8.7853    5.4987  -27.2393 C   0  0  0  0  0  0  0  0  0  0  0  0
   -8.5234    4.8694  -29.7439 C   0  0  0  0  0  0  0  0  0  0  0  0
   -9.9730    4.5923  -27.6340 C   0  0  0  0  0  0  0  0  0  0  0  0
   -7.7880    3.8673  -30.6868 C   0  0  0  0  0  0  0  0  0  0  0  0
  1 14  1  0
  1 15  1  0
  2 15  1  0
  3  6  1  0
  3  8  1  0
  4 17  1  0
  5 12  2  0
  6 12  1  0
  6 17  1  0
  7  9  1  0
  7 15  1  0
  7 16  1  0
 10 14  1  0
 11 16  1  0
 12 13  1  0
 14 16  1  0
 15 17  1  0
M  END
$$$$
