
     RDKit          3D

 27 28  0  0  0  0  0  0  0  0999 V2000
   -7.6952    3.0649  -32.3336 C   0  0  0  0  0  0  0  0  0  0  0  0
   -8.6468    3.2728  -29.9129 O   0  0  0  0  0  0  0  0  0  0  0  0
   -9.4839    6.1669  -26.8074 C   0  0  0  0  0  0  0  0  0  0  0  0
   -9.2473    2.6865  -32.2866 C   0  0  0  0  0  0  0  0  0  0  0  0
   -9.4019    1.3181  -32.5584 O   0  0  0  0  0  0  0  0  0  0  0  0
   -5.2017    1.3555  -29.5982 C   0  0  0  0  0  0  0  0  0  0  0  0
   -9.6137    3.0184  -30.8728 C   0  0  0  0  0  0  0  0  0  0  0  0
   -4.4756    0.1482  -30.1246 C   0  0  0  0  0  0  0  0  0  0  0  0
   -7.4109    3.6653  -33.5342 O   0  0  0  0  0  0  0  0  0  0  0  0
   -6.5362    4.5451  -28.2567 N   0  0  0  0  0  0  0  0  0  0  0  0
  -11.9675    2.5036  -31.1294 O   0  0  0  0  0  0  0  0  0  0  0  0
   -4.6332   -2.4836  -30.2251 C   0  0  0  0  0  0  0  0  0  0  0  0
   -7.7678    5.1033  -28.3460 C   0  0  0  0  0  0  0  0  0  0  0  0
  -11.1705    3.5316  -29.0942 C   0  0  0  0  0  0  0  0  0  0  0  0
   -6.1981    3.3021  -28.6760 C   0  0  0  0  0  0  0  0  0  0  0  0
   -5.2714   -1.0905  -29.9110 C   0  0  0  0  0  0  0  0  0  0  0  0
  -10.7340    5.6180  -26.5423 O   0  0  0  0  0  0  0  0  0  0  0  0
   -8.3182    6.2117  -27.5992 C   0  0  0  0  0  0  0  0  0  0  0  0
   -8.8030    4.2900  -28.9452 C   0  0  0  0  0  0  0  0  0  0  0  0
   -5.6145    1.9478  -32.0970 O   0  0  0  0  0  0  0  0  0  0  0  0
  -10.2246    4.7186  -28.8717 C   0  0  0  0  0  0  0  0  0  0  0  0
   -3.4578   -2.7397  -30.1008 O   0  0  0  0  0  0  0  0  0  0  0  0
  -11.0205    3.1106  -30.5371 C   0  0  0  0  0  0  0  0  0  0  0  0
   -6.0666    2.4474  -29.7535 N   0  0  0  0  0  0  0  0  0  0  0  0
   -6.7293    2.3860  -31.3407 C   0  0  0  0  0  0  0  0  0  0  0  0
   -5.0545   -4.8357  -30.7195 N   0  0  0  0  0  0  0  0  0  0  0  0
   -5.6004   -3.5706  -30.6020 C   0  0  0  0  0  0  0  0  0  0  0  0
  1  4  1  0
  1  9  1  0
  1 25  1  0
  2  7  1  0
  2 19  1  0
  3 17  1  0
  3 18  1  0
  4  5  1  0
  4  7  1  0
  6  8  1  0
  6 24  1  0
  7 23  1  0
  8 16  1  0
 10 13  1  0
 10 15  1  0
 11 23  2  0
 12 16  1  0
 12 22  2  0
 12 27  1  0
 13 18  1  0
 13 19  1  0
 14 21  1  0
 14 23  1  0
 15 24  1  0
 19 21  1  0
 20 25  2  0
 24 25  1  0
 26 27  1  0
M  END
$$$$
