
     RDKit          3D

 12 12  0  0  0  0  0  0  0  0999 V2000
   -9.7385    5.4978  -27.8328 N   0  0  0  0  0  0  0  0  0  0  0  0
   -8.1706    1.3798  -32.4993 O   0  0  0  0  0  0  0  0  0  0  0  0
   -8.4741    4.4414  -29.3322 C   0  0  0  0  0  0  0  0  0  0  0  0
  -10.3870    3.3359  -30.6419 C   0  0  0  0  0  0  0  0  0  0  0  0
   -9.8455    4.0158  -29.5128 C   0  0  0  0  0  0  0  0  0  0  0  0
   -6.0500    2.0888  -32.1502 O   0  0  0  0  0  0  0  0  0  0  0  0
   -7.5034    3.6126  -30.0610 C   0  0  0  0  0  0  0  0  0  0  0  0
   -7.7024    6.4478  -28.2706 O   0  0  0  0  0  0  0  0  0  0  0  0
   -7.8379    3.5429  -31.5832 C   0  0  0  0  0  0  0  0  0  0  0  0
   -7.3080    2.2153  -32.1606 C   0  0  0  0  0  0  0  0  0  0  0  0
   -8.5447    5.5047  -28.3746 C   0  0  0  0  0  0  0  0  0  0  0  0
  -10.5438    4.5353  -28.5699 N   0  0  0  0  0  0  0  0  0  0  0  0
  1 11  1  0
  1 12  1  0
  2 10  2  0
  3  5  1  0
  3  7  1  0
  3 11  1  0
  4  5  1  0
  5 12  1  0
  6 10  1  0
  7  9  1  0
  8 11  2  0
  9 10  1  0
M  END
$$$$
