
     RDKit          3D

 14 13  0  0  0  0  0  0  0  0999 V2000
   -7.4957    1.7549  -31.8127 C   0  0  0  0  0  0  0  0  0  0  0  0
   -7.3985    3.6662  -33.2536 O   0  0  0  0  0  0  0  0  0  0  0  0
   -8.4741    1.1228  -32.2951 O   0  0  0  0  0  0  0  0  0  0  0  0
  -10.7325    5.3901  -27.1615 O   0  0  0  0  0  0  0  0  0  0  0  0
   -8.9942    3.8110  -31.3912 C   0  0  0  0  0  0  0  0  0  0  0  0
   -9.0530    4.4300  -30.0022 C   0  0  0  0  0  0  0  0  0  0  0  0
   -8.3929    6.6289  -28.6368 O   0  0  0  0  0  0  0  0  0  0  0  0
   -7.6537    4.4028  -29.3731 C   0  0  0  0  0  0  0  0  0  0  0  0
   -9.9816    3.8801  -28.9445 C   0  0  0  0  0  0  0  0  0  0  0  0
   -9.7777    4.3253  -27.4789 C   0  0  0  0  0  0  0  0  0  0  0  0
  -10.9145    3.0412  -29.5583 O   0  0  0  0  0  0  0  0  0  0  0  0
   -6.5150    1.2490  -31.2534 O   0  0  0  0  0  0  0  0  0  0  0  0
   -7.6271    5.4936  -28.2963 C   0  0  0  0  0  0  0  0  0  0  0  0
   -7.6018    3.3001  -31.8298 C   0  0  0  0  0  0  0  0  0  0  0  0
  1  3  2  0
  1 12  1  0
  1 14  1  0
  2 14  1  0
  4 10  1  0
  5  6  1  0
  5 14  1  0
  6  8  1  0
  6  9  1  0
  7 13  1  0
  8 13  1  0
  9 10  1  0
  9 11  1  0
M  END
$$$$
