
     RDKit          3D

 21 22  0  0  0  0  0  0  0  0999 V2000
   -8.1214    2.4102  -31.1052 C   0  0  0  0  0  0  0  0  0  0  0  0
   -9.4733    6.4868  -26.7861 O   0  0  0  0  0  0  0  0  0  0  0  0
   -9.5163    5.6819  -29.9856 C   0  0  0  0  0  0  0  0  0  0  0  0
   -9.6166    4.4142  -30.9238 C   0  0  0  0  0  0  0  0  0  0  0  0
   -7.3107    2.2995  -32.5060 P   0  0  0  0  0  0  0  0  0  0  0  0
   -8.8821    5.1538  -28.6864 C   0  0  0  0  0  0  0  0  0  0  0  0
   -8.6302    6.4489  -30.9286 O   0  0  0  0  0  0  0  0  0  0  0  0
   -7.9282    1.1700  -33.2257 O   0  0  0  0  0  0  0  0  0  0  0  0
   -9.9794    4.3597  -28.0665 O   0  0  0  0  0  0  0  0  0  0  0  0
   -7.3484    3.5327  -33.4071 O   0  0  0  0  0  0  0  0  0  0  0  0
   -7.9058    4.0161  -29.1422 S   0  0  0  0  0  0  0  0  0  0  0  0
  -12.5736    2.5880  -31.5848 C   0  0  0  0  0  0  0  0  0  0  0  0
  -11.0726    2.3959  -31.5087 C   0  0  0  0  0  0  0  0  0  0  0  0
   -8.4100    6.1230  -27.5897 C   0  0  0  0  0  0  0  0  0  0  0  0
  -13.2139    1.7718  -32.2731 O   0  0  0  0  0  0  0  0  0  0  0  0
  -10.5197    3.3144  -30.3891 C   0  0  0  0  0  0  0  0  0  0  0  0
   -5.8616    2.0312  -32.1394 O   0  0  0  0  0  0  0  0  0  0  0  0
  -12.9324    3.7279  -31.2081 O   0  0  0  0  0  0  0  0  0  0  0  0
   -8.1844    3.8389  -30.7085 C   0  0  0  0  0  0  0  0  0  0  0  0
  -10.4248    3.2587  -28.9119 C   0  0  0  0  0  0  0  0  0  0  0  0
   -7.7640    7.1931  -28.0427 O   0  0  0  0  0  0  0  0  0  0  0  0
  1  5  1  0
  1 19  1  0
  2 14  1  0
  3  4  1  0
  3  6  1  0
  3  7  1  0
  4 16  1  0
  4 19  1  0
  5  8  1  0
  5 10  1  0
  5 17  1  0
  6  9  1  0
  6 11  1  0
  6 14  1  0
  9 20  1  0
 11 19  1  0
 12 13  1  0
 12 15  2  0
 12 18  1  0
 13 16  1  0
 14 21  1  0
 16 20  1  0
M  END
$$$$
