
     RDKit          3D

 20 18  0  0  0  0  0  0  0  0999 V2000
   -6.2367    2.0894  -32.1507 O   0  0  0  0  0  0  0  0  0  0  0  0
   -9.9479    3.9866  -27.4877 C   0  0  0  0  0  0  0  0  0  0  0  0
   -7.7133    4.3776  -29.1528 C   0  0  0  0  0  0  0  0  0  0  0  0
   -8.5921    2.1782  -32.1404 C   0  0  0  0  0  0  0  0  0  0  0  0
  -10.8483    3.0198  -30.9226 C   0  0  0  0  0  0  0  0  0  0  0  0
   -8.3984    7.5123  -28.0161 O   0  0  0  0  0  0  0  0  0  0  0  0
   -8.9637    1.4957  -32.6199 O   0  0  0  0  0  0  0  0  0  0  0  0
   -7.2696    2.5589  -31.9349 C   0  0  0  0  0  0  0  0  0  0  0  0
   -9.3673    3.1832  -31.2511 C   0  0  0  0  0  0  0  0  0  0  0  0
  -10.1673    5.6026  -27.2111 C   0  0  0  0  0  0  0  0  0  0  0  0
   -9.1718    6.3580  -27.9212 C   0  0  0  0  0  0  0  0  0  0  0  0
   -9.3996    5.9540  -30.5709 C   0  0  0  0  0  0  0  0  0  0  0  0
   -9.2925    6.6996  -31.8864 O   0  0  0  0  0  0  0  0  0  0  0  0
   -8.6575    4.5719  -31.2436 N   0  0  0  0  0  0  0  0  0  0  0  0
   -7.1736    1.0368  -31.2684 O   0  0  0  0  0  0  0  0  0  0  0  0
   -8.0019    5.2739  -30.4281 C   0  0  0  0  0  0  0  0  0  0  0  0
  -10.7499    3.2063  -28.2742 O   0  0  0  0  0  0  0  0  0  0  0  0
   -7.4216    3.5089  -33.3859 O   0  0  0  0  0  0  0  0  0  0  0  0
  -10.8690    6.3439  -26.3058 N   0  0  0  0  0  0  0  0  0  0  0  0
   -7.5177    5.1014  -27.8444 C   0  0  0  0  0  0  0  0  0  0  0  0
  1  8  1  0
  2 10  1  0
  2 17  1  0
  3 16  1  0
  3 20  1  0
  4  7  2  0
  4  8  1  0
  4  9  1  0
  5  9  1  0
  6 11  1  0
  8 15  1  0
  8 18  1  0
  9 14  1  0
 10 11  1  0
 10 19  1  0
 12 13  1  0
 12 16  1  0
 14 16  1  0
M  END
$$$$
