
     RDKit          3D

 15 14  0  0  0  0  0  0  0  0999 V2000
   -7.9121    7.4530  -27.7368 N   0  0  0  0  0  0  0  0  0  0  0  0
   -7.0781    2.2794  -31.8619 C   0  0  0  0  0  0  0  0  0  0  0  0
   -8.0427    6.7069  -27.7873 C   0  0  0  0  0  0  0  0  0  0  0  0
  -10.8295    2.9959  -28.4911 C   0  0  0  0  0  0  0  0  0  0  0  0
   -7.1814    1.1133  -31.3818 O   0  0  0  0  0  0  0  0  0  0  0  0
  -10.1956    3.8856  -27.5046 C   0  0  0  0  0  0  0  0  0  0  0  0
   -8.8892    5.8525  -28.5370 O   0  0  0  0  0  0  0  0  0  0  0  0
   -8.5221    5.4896  -31.6913 O   0  0  0  0  0  0  0  0  0  0  0  0
   -6.3093    2.1462  -32.1498 O   0  0  0  0  0  0  0  0  0  0  0  0
   -7.8093    3.0494  -32.4438 C   0  0  0  0  0  0  0  0  0  0  0  0
   -8.1435    3.6506  -29.0157 C   0  0  0  0  0  0  0  0  0  0  0  0
   -8.9222    3.4694  -30.2790 C   0  0  0  0  0  0  0  0  0  0  0  0
   -9.0527    2.3749  -33.0772 O   0  0  0  0  0  0  0  0  0  0  0  0
   -8.7668    4.3442  -27.9906 C   0  0  0  0  0  0  0  0  0  0  0  0
   -8.0836    4.1994  -31.5411 C   0  0  0  0  0  0  0  0  0  0  0  0
  1  3  2  0
  2  5  2  0
  2  9  1  0
  2 10  1  0
  3  7  1  0
  4  6  1  0
  6 14  1  0
  7 14  1  0
  8 15  1  0
 10 13  1  0
 10 15  1  0
 11 12  1  0
 11 14  1  0
 12 15  1  0
M  END
$$$$
