
     RDKit          3D

 27 30  0  0  0  0  0  0  0  0999 V2000
   -8.8663    6.2817  -28.3532 C   0  0  0  0  0  0  0  0  0  0  0  0
   -7.1485    1.4567  -32.6180 P   0  0  0  0  0  0  0  0  0  0  0  0
   -8.7212    1.6733  -32.3765 O   0  0  0  0  0  0  0  0  0  0  0  0
  -15.2042   -0.1898  -31.2351 C   0  0  0  0  0  0  0  0  0  0  0  0
   -8.8329    5.3511  -29.3724 C   0  0  0  0  0  0  0  0  0  0  0  0
  -13.2348    2.2790  -31.8502 C   0  0  0  0  0  0  0  0  0  0  0  0
   -8.4556    7.2960  -27.8763 C   0  0  0  0  0  0  0  0  0  0  0  0
  -13.7521    1.0921  -32.0679 C   0  0  0  0  0  0  0  0  0  0  0  0
   -9.9613    6.2916  -26.6766 N   0  0  0  0  0  0  0  0  0  0  0  0
  -11.6014    3.6654  -30.3474 C   0  0  0  0  0  0  0  0  0  0  0  0
   -7.8957    3.6737  -31.1268 C   0  0  0  0  0  0  0  0  0  0  0  0
  -15.8223    0.5026  -32.1728 O   0  0  0  0  0  0  0  0  0  0  0  0
  -13.5944   -0.4925  -31.9130 C   0  0  0  0  0  0  0  0  0  0  0  0
   -7.1093    3.4473  -29.9198 C   0  0  0  0  0  0  0  0  0  0  0  0
  -10.8713    4.6535  -27.8191 C   0  0  0  0  0  0  0  0  0  0  0  0
  -12.1498    2.6006  -31.1117 C   0  0  0  0  0  0  0  0  0  0  0  0
   -6.0941    2.4143  -32.3346 O   0  0  0  0  0  0  0  0  0  0  0  0
   -8.6169    7.3414  -26.7760 C   0  0  0  0  0  0  0  0  0  0  0  0
  -14.9175    1.2236  -32.9626 C   0  0  0  0  0  0  0  0  0  0  0  0
   -9.8965    5.5306  -27.3252 C   0  0  0  0  0  0  0  0  0  0  0  0
   -9.7332    3.9196  -28.8223 C   0  0  0  0  0  0  0  0  0  0  0  0
   -9.4860    3.2509  -31.2167 C   0  0  0  0  0  0  0  0  0  0  0  0
   -8.8264    6.0092  -31.5500 O   0  0  0  0  0  0  0  0  0  0  0  0
  -10.3644    3.3439  -30.0089 C   0  0  0  0  0  0  0  0  0  0  0  0
   -7.4078    3.1450  -32.2633 C   0  0  0  0  0  0  0  0  0  0  0  0
   -8.1261    5.2375  -30.7768 C   0  0  0  0  0  0  0  0  0  0  0  0
   -7.2537    3.4218  -33.2345 O   0  0  0  0  0  0  0  0  0  0  0  0
  1  5  2  0
  1  7  1  0
  1 20  1  0
  2  3  1  0
  2 17  1  0
  2 25  1  0
  4 12  1  0
  4 13  1  0
  5 21  1  0
  5 26  1  0
  6  8  2  3
  6 16  1  0
  7 18  1  0
  8 13  1  0
  8 19  1  0
  9 18  1  0
  9 20  1  0
 10 16  1  0
 10 24  1  0
 11 14  1  0
 11 22  1  0
 11 25  1  0
 11 26  1  0
 12 19  1  0
 15 20  1  0
 15 21  1  0
 21 24  1  0
 22 24  1  0
 23 26  1  0
 25 27  2  0
M  END
$$$$
