
     RDKit          3D

 12 11  0  0  0  0  0  0  0  0999 V2000
   -7.2463    3.5480  -33.3423 O   0  0  0  0  0  0  0  0  0  0  0  0
   -7.8090    5.2850  -28.8816 C   0  0  0  0  0  0  0  0  0  0  0  0
   -8.6639    6.5258  -28.6020 O   0  0  0  0  0  0  0  0  0  0  0  0
   -7.5122    3.4992  -30.8208 O   0  0  0  0  0  0  0  0  0  0  0  0
  -10.9197    4.7971  -27.4040 O   0  0  0  0  0  0  0  0  0  0  0  0
   -7.3186    2.7101  -32.0336 P   0  0  0  0  0  0  0  0  0  0  0  0
   -8.6063    3.8533  -28.1787 C   0  0  0  0  0  0  0  0  0  0  0  0
   -6.1442    2.3090  -32.2663 O   0  0  0  0  0  0  0  0  0  0  0  0
   -9.8540    3.7531  -27.5517 C   0  0  0  0  0  0  0  0  0  0  0  0
   -7.7912    5.1465  -30.5347 C   0  0  0  0  0  0  0  0  0  0  0  0
   -8.5624    5.5941  -31.7279 O   0  0  0  0  0  0  0  0  0  0  0  0
   -8.3589    1.4682  -32.4273 O   0  0  0  0  0  0  0  0  0  0  0  0
  1  6  1  0
  2  3  1  0
  2  7  1  0
  2 10  1  0
  4  6  1  0
  4 10  1  0
  5  9  1  0
  6  8  1  0
  6 12  1  0
  7  9  2  3
 10 11  2  0
M  END
$$$$
