
     RDKit          3D

 14 13  0  0  0  0  0  0  0  0999 V2000
   -6.1165    2.4227  -32.2844 O   0  0  0  0  0  0  0  0  0  0  0  0
   -7.6207    3.7143  -32.0094 C   0  0  0  0  0  0  0  0  0  0  0  0
   -8.3539    1.5757  -32.3997 O   0  0  0  0  0  0  0  0  0  0  0  0
  -11.0163    4.9279  -27.1633 O   0  0  0  0  0  0  0  0  0  0  0  0
   -7.1971    3.3966  -33.1987 O   0  0  0  0  0  0  0  0  0  0  0  0
   -8.4751    4.6757  -29.5110 C   0  0  0  0  0  0  0  0  0  0  0  0
   -8.4725    6.8162  -28.2533 O   0  0  0  0  0  0  0  0  0  0  0  0
   -8.0072    4.9136  -30.9497 C   0  0  0  0  0  0  0  0  0  0  0  0
   -9.8564    3.8474  -28.9915 C   0  0  0  0  0  0  0  0  0  0  0  0
  -10.0357    4.0278  -27.5682 C   0  0  0  0  0  0  0  0  0  0  0  0
  -11.1187    3.0399  -29.3021 O   0  0  0  0  0  0  0  0  0  0  0  0
   -7.4070    2.5829  -30.4586 O   0  0  0  0  0  0  0  0  0  0  0  0
   -7.6869    5.4506  -28.4685 C   0  0  0  0  0  0  0  0  0  0  0  0
   -7.3985    2.3718  -31.7489 P   0  0  0  0  0  0  0  0  0  0  0  0
  1 14  1  0
  2  5  1  0
  2  8  2  3
  2 14  1  0
  3 14  1  0
  4 10  1  0
  6  8  1  0
  6  9  2  3
  6 13  1  0
  7 13  1  0
  9 10  1  0
  9 11  1  0
 12 14  1  0
M  END
$$$$
