
     RDKit          3D

  9  8  0  0  0  0  0  0  0  0999 V2000
   -7.3768    3.4516  -30.3663 C   0  0  0  0  0  0  0  0  0  0  0  0
   -9.4475    5.7660  -29.7841 O   0  0  0  0  0  0  0  0  0  0  0  0
   -7.1769    3.5052  -33.3834 O   0  0  0  0  0  0  0  0  0  0  0  0
   -8.3261    6.6340  -28.1753 O   0  0  0  0  0  0  0  0  0  0  0  0
   -7.3600    2.6429  -31.9986 P   0  0  0  0  0  0  0  0  0  0  0  0
   -8.7863    5.7047  -28.8915 C   0  0  0  0  0  0  0  0  0  0  0  0
   -8.1712    3.9796  -28.8146 C   0  0  0  0  0  0  0  0  0  0  0  0
   -6.1822    2.3737  -32.3636 O   0  0  0  0  0  0  0  0  0  0  0  0
   -8.3653    1.4631  -32.4682 O   0  0  0  0  0  0  0  0  0  0  0  0
  1  5  1  0
  1  7  1  0
  2  6  2  0
  3  5  1  0
  4  6  1  0
  5  8  1  0
  5  9  1  0
  6  7  1  0
M  END
$$$$
