
     RDKit          3D

 13 13  0  0  0  0  0  0  0  0999 V2000
   -6.1014    2.2906  -32.2920 O   0  0  0  0  0  0  0  0  0  0  0  0
   -8.3263    7.0501  -28.1227 O   0  0  0  0  0  0  0  0  0  0  0  0
   -8.6450    5.8776  -31.5050 O   0  0  0  0  0  0  0  0  0  0  0  0
   -7.8885    3.6115  -31.0079 C   0  0  0  0  0  0  0  0  0  0  0  0
   -9.0135    4.7282  -31.0014 C   0  0  0  0  0  0  0  0  0  0  0  0
   -9.0627    5.7734  -28.4670 C   0  0  0  0  0  0  0  0  0  0  0  0
   -8.3959    1.5038  -32.4319 O   0  0  0  0  0  0  0  0  0  0  0  0
  -10.9782    4.1899  -28.9620 O   0  0  0  0  0  0  0  0  0  0  0  0
   -7.2836    3.5278  -33.2884 O   0  0  0  0  0  0  0  0  0  0  0  0
   -7.7600    4.7530  -28.5348 C   0  0  0  0  0  0  0  0  0  0  0  0
   -7.4185    2.7142  -32.0565 P   0  0  0  0  0  0  0  0  0  0  0  0
   -9.9380    4.8652  -29.6889 C   0  0  0  0  0  0  0  0  0  0  0  0
   -6.9989    3.8519  -29.8793 C   0  0  0  0  0  0  0  0  0  0  0  0
  1 11  1  0
  2  6  1  0
  3  5  1  0
  4  5  1  0
  4 11  1  0
  4 13  1  0
  5 12  1  0
  6 10  1  0
  6 12  1  0
  7 11  1  0
  8 12  1  0
  9 11  1  0
 10 13  1  0
M  END
$$$$
