
     RDKit          3D

 26 26  0  0  0  0  0  0  0  0999 V2000
   97.2806    5.9467  -89.1007 O   0  0  0  0  0  0  0  0  0  0  0  0
  101.0379    6.4401  -90.8980 O   0  0  0  0  0  0  0  0  0  0  0  0
  101.6215    3.7224  -93.7114 C   0  0  0  0  0  0  0  0  0  0  0  0
  103.4230    5.6498  -90.8575 C   0  0  0  0  0  0  0  0  0  0  0  0
  104.8098    1.9573  -91.9134 P   0  0  0  0  0  0  0  0  0  0  0  0
  103.3909    1.8982  -92.6506 O   0  0  0  0  0  0  0  0  0  0  0  0
  102.5717    2.7880  -93.1229 C   0  0  0  0  0  0  0  0  0  0  0  0
   99.6956    6.2573  -88.9083 C   0  0  0  0  0  0  0  0  0  0  0  0
  105.8735    1.8796  -93.0486 O   0  0  0  0  0  0  0  0  0  0  0  0
  104.3957    7.7778  -90.5703 O   0  0  0  0  0  0  0  0  0  0  0  0
  100.3976    3.0747  -93.9576 O   0  0  0  0  0  0  0  0  0  0  0  0
  101.6208    8.9998  -91.2928 C   0  0  0  0  0  0  0  0  0  0  0  0
  101.8861    7.5136  -91.4122 C   0  0  0  0  0  0  0  0  0  0  0  0
   98.4308    6.9142  -91.0122 C   0  0  0  0  0  0  0  0  0  0  0  0
  104.8043    0.7431  -90.9464 O   0  0  0  0  0  0  0  0  0  0  0  0
  101.5182    4.8830  -92.7421 C   0  0  0  0  0  0  0  0  0  0  0  0
   99.7443    6.5580  -90.3439 C   0  0  0  0  0  0  0  0  0  0  0  0
   97.3230    5.9000  -90.5918 C   0  0  0  0  0  0  0  0  0  0  0  0
  100.3998    9.4221  -91.3415 O   0  0  0  0  0  0  0  0  0  0  0  0
  103.3678    5.3668  -89.5172 O   0  0  0  0  0  0  0  0  0  0  0  0
  100.6006    5.7505  -93.2347 O   0  0  0  0  0  0  0  0  0  0  0  0
  102.6039    9.7450  -90.9900 O   0  0  0  0  0  0  0  0  0  0  0  0
  104.9908    3.2728  -91.1424 O   0  0  0  0  0  0  0  0  0  0  0  0
  102.4834    4.8706  -91.6879 O   0  0  0  0  0  0  0  0  0  0  0  0
   98.5158    5.4150  -88.4805 C   0  0  0  0  0  0  0  0  0  0  0  0
  103.3487    7.1614  -91.1735 C   0  0  0  0  0  0  0  0  0  0  0  0
  1 18  1  0
  1 25  1  0
  2 13  1  0
  2 17  1  0
  3  7  1  0
  3 11  1  0
  3 16  1  0
  4 20  1  0
  4 24  1  0
  4 26  1  0
  5  6  1  0
  5  9  1  0
  5 15  1  0
  5 23  1  0
  6  7  1  0
  8 17  1  0
  8 25  1  0
 10 26  1  0
 12 13  1  0
 12 19  2  0
 12 22  1  0
 13 26  1  0
 14 17  1  0
 14 18  1  0
 16 21  2  0
 16 24  1  0
M  END
$$$$
