
     RDKit          3D

 36 39  0  0  0  0  0  0  0  0999 V2000
  104.7490    2.0069  -92.5818 C   0  0  0  0  0  0  0  0  0  0  0  0
   99.5960    7.7003  -90.4510 C   0  0  0  0  0  0  0  0  0  0  0  0
  102.2340    2.0378  -92.9422 C   0  0  0  0  0  0  0  0  0  0  0  0
  103.5471   10.1020  -91.5677 O   0  0  0  0  0  0  0  0  0  0  0  0
  101.4025    9.1587  -91.1435 C   0  0  0  0  0  0  0  0  0  0  0  0
  100.9131    4.2224  -87.7224 C   0  0  0  0  0  0  0  0  0  0  0  0
   99.6578    5.8230  -93.0719 O   0  0  0  0  0  0  0  0  0  0  0  0
  104.9025    4.2174  -91.2345 C   0  0  0  0  0  0  0  0  0  0  0  0
   99.7378    3.6731  -92.1755 C   0  0  0  0  0  0  0  0  0  0  0  0
  103.4027    7.8182  -91.3152 N   0  0  0  0  0  0  0  0  0  0  0  0
  102.8541    9.1442  -91.4293 C   0  0  0  0  0  0  0  0  0  0  0  0
  100.1850    3.0907  -87.4729 O   0  0  0  0  0  0  0  0  0  0  0  0
  100.5106   10.2424  -91.3024 C   0  0  0  0  0  0  0  0  0  0  0  0
  106.2574    2.2377  -90.7291 O   0  0  0  0  0  0  0  0  0  0  0  0
  101.7860    3.3526  -93.5943 C   0  0  0  0  0  0  0  0  0  0  0  0
   96.4096    4.9785  -89.6516 C   0  0  0  0  0  0  0  0  0  0  0  0
   99.1325    5.0085  -92.2142 C   0  0  0  0  0  0  0  0  0  0  0  0
   99.1620    6.3413  -90.1550 C   0  0  0  0  0  0  0  0  0  0  0  0
  100.2675    3.4764  -93.5152 N   0  0  0  0  0  0  0  0  0  0  0  0
  106.7040    3.4490  -92.5987 O   0  0  0  0  0  0  0  0  0  0  0  0
  105.7801    2.9457  -91.7717 C   0  0  0  0  0  0  0  0  0  0  0  0
  104.5328    6.9338  -91.2030 C   0  0  0  0  0  0  0  0  0  0  0  0
  103.4413    3.6495  -91.2542 C   0  0  0  0  0  0  0  0  0  0  0  0
   99.1105   10.0328  -91.0196 N   0  0  0  0  0  0  0  0  0  0  0  0
   98.6892    8.7946  -90.5947 C   0  0  0  0  0  0  0  0  0  0  0  0
   97.0548    5.2813  -90.8663 C   0  0  0  0  0  0  0  0  0  0  0  0
  103.1908    1.1323  -90.9288 O   0  0  0  0  0  0  0  0  0  0  0  0
  100.8462    5.2167  -88.7371 O   0  0  0  0  0  0  0  0  0  0  0  0
   98.3917    5.5711  -91.0720 C   0  0  0  0  0  0  0  0  0  0  0  0
  105.6117    7.4304  -91.8117 O   0  0  0  0  0  0  0  0  0  0  0  0
   97.0988    4.9161  -88.4284 C   0  0  0  0  0  0  0  0  0  0  0  0
  100.9021    7.9814  -90.7090 C   0  0  0  0  0  0  0  0  0  0  0  0
  104.8296    5.6382  -90.5500 C   0  0  0  0  0  0  0  0  0  0  0  0
   99.4876    5.5853  -88.9926 C   0  0  0  0  0  0  0  0  0  0  0  0
   98.4443    5.0276  -88.2679 C   0  0  0  0  0  0  0  0  0  0  0  0
  103.3421    2.2512  -91.8747 C   0  0  0  0  0  0  0  0  0  0  0  0
  1 21  1  0
  1 36  1  0
  2 18  1  0
  2 25  2  0
  2 32  1  0
  3 15  1  0
  3 36  1  0
  4 11  2  0
  5 11  1  0
  5 13  1  0
  5 32  2  0
  6 12  1  0
  6 28  1  0
  7 17  1  0
  8 21  1  0
  8 23  1  0
  8 33  1  0
  9 17  1  0
  9 19  1  0
 10 11  1  0
 10 22  1  0
 13 24  2  0
 14 21  1  0
 15 19  1  0
 16 26  1  0
 16 31  2  0
 17 29  1  0
 18 29  1  0
 18 34  1  0
 20 21  1  0
 22 30  2  0
 22 33  1  0
 23 36  1  0
 24 25  1  0
 26 29  1  0
 27 36  1  0
 28 34  1  0
 31 35  1  0
 34 35  2  0
M  END
$$$$
