
     RDKit          3D

 30 32  0  0  0  0  0  0  0  0999 V2000
    5.6526   -3.0390    3.1287 C   0  0  0  0  0  0  0  0  0  0  0  0
    3.1938    0.9845    1.1235 C   0  0  0  0  0  0  0  0  0  0  0  0
    0.0366    1.3478   -0.4789 C   0  0  0  0  0  0  0  0  0  0  0  0
    2.3175    3.0660   -0.0175 C   0  0  0  0  0  0  0  0  0  0  0  0
    9.4284    2.4394    2.3730 C   0  0  0  0  0  0  0  0  0  0  0  0
    5.4235    3.2210    3.1407 C   0  0  0  0  0  0  0  0  0  0  0  0
   -0.0833    2.7983   -0.4795 C   0  0  0  0  0  0  0  0  0  0  0  0
    3.5532   -1.4592    1.6314 C   0  0  0  0  0  0  0  0  0  0  0  0
    9.2656   -2.6785    2.4730 C   0  0  0  0  0  0  0  0  0  0  0  0
    8.5711    1.1977    2.4539 C   0  0  0  0  0  0  0  0  0  0  0  0
    1.1294    3.5084   -0.5993 N   0  0  0  0  0  0  0  0  0  0  0  0
    3.6795   -2.7000    4.6390 N   0  0  0  0  0  0  0  0  0  0  0  0
    1.6803   -0.4794    0.3945 N   0  0  0  0  0  0  0  0  0  0  0  0
    6.6376    2.5788    3.1753 N   0  0  0  0  0  0  0  0  0  0  0  0
    2.2253    1.7084    0.3881 C   0  0  0  0  0  0  0  0  0  0  0  0
    1.2605    0.8082    0.0418 C   0  0  0  0  0  0  0  0  0  0  0  0
    7.1927    1.5282    2.6324 C   0  0  0  0  0  0  0  0  0  0  0  0
    7.3343   -1.6605    1.1401 C   0  0  0  0  0  0  0  0  0  0  0  0
    9.8960    2.7014    1.2078 O   0  0  0  0  0  0  0  0  0  0  0  0
    8.8673   -0.1423    2.4765 N   0  0  0  0  0  0  0  0  0  0  0  0
    5.1952    4.3299    3.9129 O   0  0  0  0  0  0  0  0  0  0  0  0
    4.3271    2.7059    2.4234 C   0  0  0  0  0  0  0  0  0  0  0  0
    4.0352    1.7184    1.7924 C   0  0  0  0  0  0  0  0  0  0  0  0
    2.8727   -0.3430    1.0613 C   0  0  0  0  0  0  0  0  0  0  0  0
    4.9218   -1.7253    1.1926 C   0  0  0  0  0  0  0  0  0  0  0  0
    9.5454    3.2541    3.3621 O   0  0  0  0  0  0  0  0  0  0  0  0
    4.1715   -3.3186    3.3866 C   0  0  0  0  0  0  0  0  0  0  0  0
    8.4966   -1.4326    2.0515 C   0  0  0  0  0  0  0  0  0  0  0  0
    6.4036   -2.5135    4.3560 C   0  0  0  0  0  0  0  0  0  0  0  0
    6.0900   -2.3765    1.8586 N   0  0  0  0  0  0  0  0  0  0  0  0
  1 27  1  0
  1 29  1  0
  1 30  1  0
  2 15  1  0
  2 23  1  0
  2 24  2  0
  3  7  1  0
  3 16  2  0
  4 11  1  0
  4 15  1  0
  5 10  1  0
  5 19  2  0
  5 26  1  0
  6 14  1  0
  6 21  2  0
  6 22  1  0
  7 11  1  0
  8 24  1  0
  8 25  1  0
  9 28  1  0
 10 17  1  0
 10 20  1  0
 12 27  1  0
 13 16  1  0
 13 24  1  0
 14 17  1  0
 15 16  1  0
 18 28  1  0
 18 30  1  0
 20 28  2  3
 22 23  2  3
 25 30  1  0
M  END
$$$$
