
     RDKit          3D

 36 38  0  0  0  0  0  0  0  0999 V2000
    9.5935   -3.3585    1.0944 C   0  0  0  0  0  0  0  0  0  0  0  0
    5.5227    3.5628    3.3966 C   0  0  0  0  0  0  0  0  0  0  0  0
    6.3323   -3.9671    3.4327 C   0  0  0  0  0  0  0  0  0  0  0  0
    7.8899    3.5588    3.6803 O   0  0  0  0  0  0  0  0  0  0  0  0
    5.2909    4.7698    3.9027 O   0  0  0  0  0  0  0  0  0  0  0  0
    6.2782   -2.9176    5.8782 C   0  0  0  0  0  0  0  0  0  0  0  0
   -0.5076    3.4605   -1.2334 N   0  0  0  0  0  0  0  0  0  0  0  0
    8.2781   -2.5296    2.8809 C   0  0  0  0  0  0  0  0  0  0  0  0
    4.8112   -1.7934    1.5798 C   0  0  0  0  0  0  0  0  0  0  0  0
    7.5582    0.7396    1.5350 O   0  0  0  0  0  0  0  0  0  0  0  0
    6.7837    2.9313    3.8318 C   0  0  0  0  0  0  0  0  0  0  0  0
    5.5263   -4.0912    5.9336 C   0  0  0  0  0  0  0  0  0  0  0  0
    3.8862    2.9135    1.5682 C   0  0  0  0  0  0  0  0  0  0  0  0
    8.8118   -3.7833    2.2904 C   0  0  0  0  0  0  0  0  0  0  0  0
    4.1228    0.5819    1.3966 C   0  0  0  0  0  0  0  0  0  0  0  0
    1.3229    2.2430   -0.3927 C   0  0  0  0  0  0  0  0  0  0  0  0
    3.8490   -0.7298    1.2252 C   0  0  0  0  0  0  0  0  0  0  0  0
    3.3267    1.5733    1.0458 C   0  0  0  0  0  0  0  0  0  0  0  0
    2.6649   -1.0846    0.6491 C   0  0  0  0  0  0  0  0  0  0  0  0
    8.5168   -1.3797    2.0628 O   0  0  0  0  0  0  0  0  0  0  0  0
    9.6847   -1.8182    1.1291 C   0  0  0  0  0  0  0  0  0  0  0  0
    7.6618   -0.1923    2.5322 C   0  0  0  0  0  0  0  0  0  0  0  0
    6.9507   -2.5965    3.5783 C   0  0  0  0  0  0  0  0  0  0  0  0
    4.6524    2.7086    2.7475 N   0  0  0  0  0  0  0  0  0  0  0  0
    4.0531    4.0718    1.2234 O   0  0  0  0  0  0  0  0  0  0  0  0
   -0.0912    2.1385   -0.7304 C   0  0  0  0  0  0  0  0  0  0  0  0
    5.5548   -5.2152    5.2321 N   0  0  0  0  0  0  0  0  0  0  0  0
    6.7222    1.6192    4.1535 O   0  0  0  0  0  0  0  0  0  0  0  0
    1.7894   -0.0687    0.1989 C   0  0  0  0  0  0  0  0  0  0  0  0
    9.2810   -1.3281   -0.2983 C   0  0  0  0  0  0  0  0  0  0  0  0
    2.1055    1.2628    0.3076 C   0  0  0  0  0  0  0  0  0  0  0  0
    1.6088    3.6268   -0.1083 C   0  0  0  0  0  0  0  0  0  0  0  0
    7.1301    0.2590    3.8831 C   0  0  0  0  0  0  0  0  0  0  0  0
    5.9976   -0.6005    4.5105 O   0  0  0  0  0  0  0  0  0  0  0  0
    6.3368   -1.9700    4.8035 C   0  0  0  0  0  0  0  0  0  0  0  0
    6.6523   -4.9832    4.4646 C   0  0  0  0  0  0  0  0  0  0  0  0
  1 14  1  0
  1 21  1  0
  2  5  2  0
  2 11  1  0
  2 24  1  0
  3 23  1  0
  3 36  1  0
  4 11  2  0
  6 12  1  0
  6 35  1  0
  7 26  1  0
  8 14  1  0
  8 20  1  0
  8 23  1  0
  9 17  1  0
 10 22  2  0
 11 28  1  0
 12 27  1  0
 13 18  1  0
 13 24  1  0
 13 25  2  0
 15 17  2  0
 15 18  1  0
 16 26  1  0
 16 31  1  0
 16 32  1  0
 17 19  1  0
 18 31  2  0
 19 29  2  0
 20 22  1  0
 21 30  1  0
 22 33  1  0
 23 35  1  0
 27 36  1  0
 28 33  1  0
 29 31  1  0
 33 34  1  0
 34 35  1  0
M  END
$$$$
