
     RDKit          3D

 30 30  0  0  0  0  0  0  0  0999 V2000
    7.3103    3.4637    3.5803 O   0  0  0  0  0  0  0  0  0  0  0  0
    5.4764    5.1471    3.8591 O   0  0  0  0  0  0  0  0  0  0  0  0
    6.0204   -1.5074    1.6662 N   0  0  0  0  0  0  0  0  0  0  0  0
    3.8433    3.4337    1.8738 C   0  0  0  0  0  0  0  0  0  0  0  0
    1.6591    0.1326   -0.0146 C   0  0  0  0  0  0  0  0  0  0  0  0
    8.7796    2.3120    5.6437 C   0  0  0  0  0  0  0  0  0  0  0  0
   -0.0062    3.2787   -0.6982 N   0  0  0  0  0  0  0  0  0  0  0  0
    5.7533    3.6601    3.5567 P   0  0  0  0  0  0  0  0  0  0  0  0
    0.7456    1.1125   -0.1962 C   0  0  0  0  0  0  0  0  0  0  0  0
    4.0266   -0.9493    0.1205 C   0  0  0  0  0  0  0  0  0  0  0  0
    8.9799   -0.6013    2.4763 O   0  0  0  0  0  0  0  0  0  0  0  0
    1.9876    3.0465    0.4117 C   0  0  0  0  0  0  0  0  0  0  0  0
    7.3965    0.5405    3.7991 N   0  0  0  0  0  0  0  0  0  0  0  0
    7.3741   -4.5698    2.8796 C   0  0  0  0  0  0  0  0  0  0  0  0
    7.7250   -3.1856    2.4537 C   0  0  0  0  0  0  0  0  0  0  0  0
    3.7109   -1.7414    2.3528 O   0  0  0  0  0  0  0  0  0  0  0  0
    4.6102   -1.3086    1.4058 C   0  0  0  0  0  0  0  0  0  0  0  0
    0.9466    2.4812   -0.1464 C   0  0  0  0  0  0  0  0  0  0  0  0
    9.4682    2.2992    2.9587 O   0  0  0  0  0  0  0  0  0  0  0  0
    3.0061    0.1717    0.3525 C   0  0  0  0  0  0  0  0  0  0  0  0
    3.5225    1.2651    0.9593 C   0  0  0  0  0  0  0  0  0  0  0  0
    3.0664    2.5141    1.0332 C   0  0  0  0  0  0  0  0  0  0  0  0
    8.7851   -3.2015    1.4306 C   0  0  0  0  0  0  0  0  0  0  0  0
    6.1702   -2.1359    4.0514 O   0  0  0  0  0  0  0  0  0  0  0  0
    8.1609    2.1247    3.9059 S   0  0  0  0  0  0  0  0  0  0  0  0
    5.1995    3.1523    2.0989 O   0  0  0  0  0  0  0  0  0  0  0  0
    5.1197    2.7059    4.6734 O   0  0  0  0  0  0  0  0  0  0  0  0
    7.7887   -0.5978    3.0839 C   0  0  0  0  0  0  0  0  0  0  0  0
    6.9240   -1.8441    2.8774 C   0  0  0  0  0  0  0  0  0  0  0  0
   -0.5192    0.7142   -0.5072 O   0  0  0  0  0  0  0  0  0  0  0  0
  1  8  1  0
  1 25  1  0
  2  8  1  0
  3 17  1  0
  3 29  1  0
  4 22  1  0
  4 26  1  0
  5  9  2  0
  5 20  1  0
  6 25  1  0
  7 18  1  0
  8 27  1  0
  9 18  1  0
  9 30  1  0
 10 17  1  0
 10 20  1  0
 11 28  2  0
 12 18  2  0
 12 22  1  0
 13 25  1  0
 13 28  1  0
 14 15  1  0
 15 23  1  0
 15 29  1  0
 16 17  2  0
 19 25  1  0
 20 21  1  0
 21 22  2  0
 24 29  1  0
 28 29  1  0
M  END
$$$$
