
     RDKit          3D

 24 26  0  0  0  0  0  0  0  0999 V2000
    5.7006   -2.0337    2.5409 C   0  0  0  0  0  0  0  0  0  0  0  0
    3.1464   -1.7445    1.5921 C   0  0  0  0  0  0  0  0  0  0  0  0
    2.0696   -1.0046    0.7883 C   0  0  0  0  0  0  0  0  0  0  0  0
    7.5230   -2.1532    0.8824 O   0  0  0  0  0  0  0  0  0  0  0  0
   -0.2641    0.6138   -0.3395 O   0  0  0  0  0  0  0  0  0  0  0  0
    4.6429   -1.4197    1.5435 C   0  0  0  0  0  0  0  0  0  0  0  0
    0.5867    3.5015   -0.4267 N   0  0  0  0  0  0  0  0  0  0  0  0
    2.6632    2.4946    0.0869 N   0  0  0  0  0  0  0  0  0  0  0  0
    2.1059    0.2440   -0.0381 C   0  0  0  0  0  0  0  0  0  0  0  0
    3.1738    1.2123    0.3694 C   0  0  0  0  0  0  0  0  0  0  0  0
    5.9591    0.6945    2.2845 C   0  0  0  0  0  0  0  0  0  0  0  0
    7.0793   -1.5142    2.0426 C   0  0  0  0  0  0  0  0  0  0  0  0
    6.4208    3.3338    2.7712 O   0  0  0  0  0  0  0  0  0  0  0  0
    8.5879    2.9417    2.5941 O   0  0  0  0  0  0  0  0  0  0  0  0
    8.0355   -0.4575    2.6125 C   0  0  0  0  0  0  0  0  0  0  0  0
    1.2805    2.3894   -0.2227 C   0  0  0  0  0  0  0  0  0  0  0  0
    7.2968    1.0149    2.8255 C   0  0  0  0  0  0  0  0  0  0  0  0
    7.4318    2.5917    2.8007 C   0  0  0  0  0  0  0  0  0  0  0  0
    4.8502    0.0293    1.6264 C   0  0  0  0  0  0  0  0  0  0  0  0
    3.1023    3.7655    0.1981 O   0  0  0  0  0  0  0  0  0  0  0  0
    8.9525   -2.3911    0.6317 C   0  0  0  0  0  0  0  0  0  0  0  0
    0.9765    1.0024   -0.4694 C   0  0  0  0  0  0  0  0  0  0  0  0
    3.6640    0.9148    1.7319 C   0  0  0  0  0  0  0  0  0  0  0  0
    9.4026   -3.5892    1.4457 C   0  0  0  0  0  0  0  0  0  0  0  0
  1  6  1  0
  1 12  1  0
  2  3  2  0
  2  6  1  0
  3  9  1  0
  4 12  1  0
  4 21  1  0
  5 22  1  0
  6 19  1  0
  7 16  2  0
  8 10  1  0
  8 16  1  0
  8 20  1  0
  9 10  1  0
  9 22  1  0
 10 23  1  0
 11 17  2  0
 11 19  2  0
 12 15  1  0
 13 18  2  0
 14 18  1  0
 15 17  1  0
 16 22  1  0
 17 18  1  0
 19 23  1  0
 21 24  1  0
M  END
$$$$
