
     RDKit          3D

 25 27  0  0  0  0  0  0  0  0999 V2000
    1.9685   -1.8994    1.1106 C   0  0  0  0  0  0  0  0  0  0  0  0
    3.2086    1.5825    0.7203 C   0  0  0  0  0  0  0  0  0  0  0  0
    6.9462   -0.1269    1.2555 C   0  0  0  0  0  0  0  0  0  0  0  0
    4.9133    4.3405    2.8822 O   0  0  0  0  0  0  0  0  0  0  0  0
    5.0683    3.4572    3.7378 C   0  0  0  0  0  0  0  0  0  0  0  0
    2.1963    2.2775    0.1721 C   0  0  0  0  0  0  0  0  0  0  0  0
   -0.1265    2.1438   -0.5992 O   0  0  0  0  0  0  0  0  0  0  0  0
    3.9928   -2.6820    2.8255 C   0  0  0  0  0  0  0  0  0  0  0  0
    9.1714   -3.0732    1.0102 C   0  0  0  0  0  0  0  0  0  0  0  0
    1.0332    0.2110    0.1216 N   0  0  0  0  0  0  0  0  0  0  0  0
    6.1758   -2.3206    1.6301 C   0  0  0  0  0  0  0  0  0  0  0  0
    4.7453    2.0153    3.2478 C   0  0  0  0  0  0  0  0  0  0  0  0
    1.0054    1.5638   -0.1236 C   0  0  0  0  0  0  0  0  0  0  0  0
    2.3684    3.6219   -0.1162 N   0  0  0  0  0  0  0  0  0  0  0  0
    5.7061    1.7607    2.1551 C   0  0  0  0  0  0  0  0  0  0  0  0
    4.9355   -1.8159    1.9018 C   0  0  0  0  0  0  0  0  0  0  0  0
    7.2163   -1.4835    1.1708 C   0  0  0  0  0  0  0  0  0  0  0  0
    9.1347   -0.9210   -0.2319 O   0  0  0  0  0  0  0  0  0  0  0  0
    5.7378    0.3684    1.6130 C   0  0  0  0  0  0  0  0  0  0  0  0
    5.3266    3.4881    4.9143 O   0  0  0  0  0  0  0  0  0  0  0  0
    3.3318    0.2303    1.0247 C   0  0  0  0  0  0  0  0  0  0  0  0
    8.5210   -1.8809    0.6197 N   0  0  0  0  0  0  0  0  0  0  0  0
    2.5641   -2.5963    2.2962 C   0  0  0  0  0  0  0  0  0  0  0  0
    4.5832   -0.4565    1.5435 N   0  0  0  0  0  0  0  0  0  0  0  0
    2.1271   -0.4298    0.6878 C   0  0  0  0  0  0  0  0  0  0  0  0
  1 23  1  0
  1 25  1  0
  2  6  2  0
  2 21  1  0
  3 17  2  0
  3 19  1  0
  4  5  2  0
  5 12  1  0
  5 20  1  0
  6 13  1  0
  6 14  1  0
  7 13  2  0
  8 16  1  0
  8 23  1  0
  9 22  1  0
 10 13  1  0
 10 25  2  0
 11 16  2  0
 11 17  1  0
 12 15  1  0
 15 19  1  0
 16 24  1  0
 17 22  1  0
 18 22  1  0
 19 24  1  0
 21 24  1  0
 21 25  1  0
M  END
$$$$
