
     RDKit          3D

 33 34  0  0  0  0  0  0  0  0999 V2000
   33.4427   41.2512   18.6861 C   0  0  0  0  0  0  0  0  0  0  0  0
   33.9465   43.5715   17.9041 C   0  0  0  0  0  0  0  0  0  0  0  0
   28.1017   41.2275   17.4457 C   0  0  0  0  0  0  0  0  0  0  0  0
   32.0135   45.1278   15.4616 C   0  0  0  0  0  0  0  0  0  0  0  0
   40.3986   46.5894   16.9859 C   0  0  0  0  0  0  0  0  0  0  0  0
   36.7152   43.0735   18.4930 C   0  0  0  0  0  0  0  0  0  0  0  0
   29.8735   45.0533   16.6291 C   0  0  0  0  0  0  0  0  0  0  0  0
   29.4832   41.0850   17.9545 C   0  0  0  0  0  0  0  0  0  0  0  0
   35.6800   42.3592   19.1332 C   0  0  0  0  0  0  0  0  0  0  0  0
   37.7395   43.8574   19.1153 C   0  0  0  0  0  0  0  0  0  0  0  0
   30.5424   45.5510   15.3315 C   0  0  0  0  0  0  0  0  0  0  0  0
   28.8044   39.5760   19.7699 N   0  0  0  0  0  0  0  0  0  0  0  0
   29.7681   40.4227   19.2593 C   0  0  0  0  0  0  0  0  0  0  0  0
   34.4192   42.4250   18.5920 C   0  0  0  0  0  0  0  0  0  0  0  0
   32.4200   45.5139   16.8144 N   0  0  0  0  0  0  0  0  0  0  0  0
   29.5611   43.5671   16.5099 C   0  0  0  0  0  0  0  0  0  0  0  0
   36.6382   43.1037   17.1416 C   0  0  0  0  0  0  0  0  0  0  0  0
   36.0890   43.3941   15.9631 C   0  0  0  0  0  0  0  0  0  0  0  0
   40.9498   47.5432   16.0561 C   0  0  0  0  0  0  0  0  0  0  0  0
   38.4107   44.8053   18.4836 C   0  0  0  0  0  0  0  0  0  0  0  0
   38.3634   45.3824   17.2963 N   0  0  0  0  0  0  0  0  0  0  0  0
   30.8324   40.6412   19.9943 O   0  0  0  0  0  0  0  0  0  0  0  0
   38.8753   46.7574   15.3277 C   0  0  0  0  0  0  0  0  0  0  0  0
   30.4564   42.3333   16.0337 C   0  0  0  0  0  0  0  0  0  0  0  0
   32.1241   41.3725   17.7565 C   0  0  0  0  0  0  0  0  0  0  0  0
   40.0174   47.6520   15.0103 C   0  0  0  0  0  0  0  0  0  0  0  0
   29.0706   38.2076   20.0880 C   0  0  0  0  0  0  0  0  0  0  0  0
   39.1221   46.1760   16.5890 C   0  0  0  0  0  0  0  0  0  0  0  0
   35.8380   41.4244   20.2246 C   0  0  0  0  0  0  0  0  0  0  0  0
   37.0587   42.2932   16.1966 O   0  0  0  0  0  0  0  0  0  0  0  0
   27.5938   40.0957   20.2657 O   0  0  0  0  0  0  0  0  0  0  0  0
   33.2269   44.7375   17.6598 C   0  0  0  0  0  0  0  0  0  0  0  0
   30.7003   41.3457   17.1539 C   0  0  0  0  0  0  0  0  0  0  0  0
  1 14  1  0
  1 25  2  0
  2 14  2  0
  2 32  2  0
  3  8  1  0
  4 11  1  0
  4 15  1  0
  5 19  1  0
  5 28  1  0
  6  9  1  0
  6 10  1  0
  6 17  1  0
  7 11  1  0
  7 16  1  0
  8 13  1  0
  8 33  1  0
  9 14  1  0
  9 29  1  0
 10 20  2  3
 12 13  1  0
 12 27  1  0
 12 31  1  0
 13 22  2  0
 15 32  1  0
 16 24  1  0
 17 18  2  0
 17 30  1  0
 19 26  1  0
 20 21  1  0
 21 28  2  3
 23 26  1  0
 23 28  1  0
 24 33  1  0
 25 33  2  0
M  END
$$$$
