
     RDKit          3D

 33 36  0  0  0  0  0  0  0  0999 V2000
   35.4154   41.4270   19.1096 C   0  0  0  0  0  0  0  0  0  0  0  0
   29.2405   39.5447   19.4455 C   0  0  0  0  0  0  0  0  0  0  0  0
   32.4355   41.5246   17.1611 C   0  0  0  0  0  0  0  0  0  0  0  0
   29.9439   45.1386   15.9313 C   0  0  0  0  0  0  0  0  0  0  0  0
   40.4845   46.0765   18.0515 C   0  0  0  0  0  0  0  0  0  0  0  0
   31.4616   42.6693   17.5689 C   0  0  0  0  0  0  0  0  0  0  0  0
   30.5295   42.8850   16.4974 O   0  0  0  0  0  0  0  0  0  0  0  0
   30.7647   43.9314   15.5850 C   0  0  0  0  0  0  0  0  0  0  0  0
   36.6953   43.3309   17.7553 C   0  0  0  0  0  0  0  0  0  0  0  0
   35.4533   40.7419   20.1070 O   0  0  0  0  0  0  0  0  0  0  0  0
   37.8355   44.1889   18.2577 C   0  0  0  0  0  0  0  0  0  0  0  0
   37.6807   44.8138   16.0392 C   0  0  0  0  0  0  0  0  0  0  0  0
   37.9437   43.9750   19.5770 C   0  0  0  0  0  0  0  0  0  0  0  0
   38.3805   44.9518   17.2776 C   0  0  0  0  0  0  0  0  0  0  0  0
   36.3143   42.5982   18.8425 C   0  0  0  0  0  0  0  0  0  0  0  0
   29.0484   44.8685   16.8071 O   0  0  0  0  0  0  0  0  0  0  0  0
   29.8334   38.2861   19.9326 C   0  0  0  0  0  0  0  0  0  0  0  0
   39.3894   46.3899   15.8969 N   0  0  0  0  0  0  0  0  0  0  0  0
   32.0356   41.5006   19.6766 C   0  0  0  0  0  0  0  0  0  0  0  0
   38.3791   45.7989   15.1742 C   0  0  0  0  0  0  0  0  0  0  0  0
   34.4438   41.1755   18.2545 N   0  0  0  0  0  0  0  0  0  0  0  0
   33.0076   40.8823   18.5534 C   0  0  0  0  0  0  0  0  0  0  0  0
   32.2847   44.0879   15.3834 C   0  0  0  0  0  0  0  0  0  0  0  0
   36.5131   43.6875   16.3598 C   0  0  0  0  0  0  0  0  0  0  0  0
   37.0217   43.0658   19.9059 N   0  0  0  0  0  0  0  0  0  0  0  0
   29.9615   40.4623   18.5972 C   0  0  0  0  0  0  0  0  0  0  0  0
   32.7860   45.3433   15.4635 O   0  0  0  0  0  0  0  0  0  0  0  0
   38.0103   46.1576   13.7742 C   0  0  0  0  0  0  0  0  0  0  0  0
   30.1243   46.0983   15.1691 O   0  0  0  0  0  0  0  0  0  0  0  0
   27.9523   39.6978   19.6587 O   0  0  0  0  0  0  0  0  0  0  0  0
   30.6839   41.8649   18.7940 C   0  0  0  0  0  0  0  0  0  0  0  0
   36.8740   42.7534   21.3527 C   0  0  0  0  0  0  0  0  0  0  0  0
   39.4056   45.8189   17.1389 N   0  0  0  0  0  0  0  0  0  0  0  0
  1 10  2  0
  1 15  1  0
  1 21  1  0
  2 17  1  0
  2 26  1  0
  2 30  1  0
  3  6  1  0
  3 22  1  0
  4  8  1  0
  4 16  2  0
  4 29  1  0
  5 33  1  0
  6  7  1  0
  6 31  1  0
  7  8  1  0
  8 23  1  0
  9 11  1  0
  9 15  2  0
  9 24  1  0
 11 13  1  0
 11 14  2  0
 12 14  1  0
 12 20  2  0
 12 24  1  0
 13 25  1  0
 14 33  1  0
 15 25  1  0
 18 20  1  0
 18 33  1  0
 19 22  1  0
 19 31  1  0
 20 28  1  0
 21 22  1  0
 23 27  1  0
 25 32  1  0
 26 31  1  0
M  END
$$$$
