
     RDKit          3D

 27 29  0  0  0  0  0  0  0  0999 V2000
   29.3578   43.6973   16.2625 C   0  0  0  0  0  0  0  0  0  0  0  0
   30.1879   40.2035   18.5941 C   0  0  0  0  0  0  0  0  0  0  0  0
   38.6859   46.0612   14.1941 C   0  0  0  0  0  0  0  0  0  0  0  0
   38.3582   44.8853   16.8537 O   0  0  0  0  0  0  0  0  0  0  0  0
   28.8310   39.0895   20.1732 C   0  0  0  0  0  0  0  0  0  0  0  0
   32.1530   41.8832   17.9481 C   0  0  0  0  0  0  0  0  0  0  0  0
   36.2110   43.1374   17.4266 C   0  0  0  0  0  0  0  0  0  0  0  0
   39.2826   47.3921   14.6780 C   0  0  0  0  0  0  0  0  0  0  0  0
   32.4269   40.9277   18.8858 C   0  0  0  0  0  0  0  0  0  0  0  0
   34.9244   41.3993   18.7944 C   0  0  0  0  0  0  0  0  0  0  0  0
   30.0544   45.4809   14.8383 N   0  0  0  0  0  0  0  0  0  0  0  0
   31.3718   45.0894   15.0164 C   0  0  0  0  0  0  0  0  0  0  0  0
   30.9246   42.1013   17.3595 C   0  0  0  0  0  0  0  0  0  0  0  0
   33.6941   40.8806   19.4324 N   0  0  0  0  0  0  0  0  0  0  0  0
   29.9542   41.2067   17.6987 N   0  0  0  0  0  0  0  0  0  0  0  0
   31.3828   40.0815   19.2577 N   0  0  0  0  0  0  0  0  0  0  0  0
   36.0037   41.2187   19.8779 C   0  0  0  0  0  0  0  0  0  0  0  0
   30.6659   43.2795   16.4673 C   0  0  0  0  0  0  0  0  0  0  0  0
   29.1630   39.3200   18.8062 O   0  0  0  0  0  0  0  0  0  0  0  0
   37.2754   45.0326   16.1368 C   0  0  0  0  0  0  0  0  0  0  0  0
   37.3240   45.8280   14.8648 C   0  0  0  0  0  0  0  0  0  0  0  0
   34.8083   42.6915   17.9642 C   0  0  0  0  0  0  0  0  0  0  0  0
   33.9663   43.9445   17.6641 C   0  0  0  0  0  0  0  0  0  0  0  0
   29.0523   44.7534   15.4676 C   0  0  0  0  0  0  0  0  0  0  0  0
   36.0697   44.3481   16.5469 C   0  0  0  0  0  0  0  0  0  0  0  0
   34.7697   44.9924   16.9401 C   0  0  0  0  0  0  0  0  0  0  0  0
   31.6632   44.0236   15.8297 C   0  0  0  0  0  0  0  0  0  0  0  0
  1 18  1  0
  1 24  2  0
  2 15  1  0
  2 16  2  0
  2 19  1  0
  3  8  1  0
  3 21  1  0
  4 20  1  0
  5 19  1  0
  6  9  2  0
  6 13  1  0
  7 22  1  0
  7 25  1  0
  9 14  1  0
  9 16  1  0
 10 14  1  0
 10 17  1  0
 10 22  1  0
 11 12  1  0
 11 24  1  0
 12 27  2  0
 13 15  2  0
 13 18  1  0
 18 27  1  0
 20 21  1  0
 20 25  1  0
 22 23  1  0
 23 26  1  0
 25 26  1  0
M  END
$$$$
