
     RDKit          3D

 31 31  0  0  0  0  0  0  0  0999 V2000
   34.0631   42.3515   18.4840 C   0  0  0  0  0  0  0  0  0  0  0  0
   29.4329   40.4030   17.6171 C   0  0  0  0  0  0  0  0  0  0  0  0
   28.5987   40.6387   16.4022 C   0  0  0  0  0  0  0  0  0  0  0  0
   36.9400   44.9428   15.3672 C   0  0  0  0  0  0  0  0  0  0  0  0
   28.8205   41.8243   15.7605 O   0  0  0  0  0  0  0  0  0  0  0  0
   31.5271   41.5796   17.8976 C   0  0  0  0  0  0  0  0  0  0  0  0
   31.4195   46.3804   16.3722 N   0  0  0  0  0  0  0  0  0  0  0  0
   31.1524   44.6096   14.7091 C   0  0  0  0  0  0  0  0  0  0  0  0
   30.8477   40.4216   17.4396 O   0  0  0  0  0  0  0  0  0  0  0  0
   31.7971   42.7115   16.8636 C   0  0  0  0  0  0  0  0  0  0  0  0
   35.8983   43.7380   17.4901 C   0  0  0  0  0  0  0  0  0  0  0  0
   34.3571   43.7464   17.8457 C   0  0  0  0  0  0  0  0  0  0  0  0
   38.8520   47.2021   14.9305 C   0  0  0  0  0  0  0  0  0  0  0  0
   40.0825   48.0555   14.7522 C   0  0  0  0  0  0  0  0  0  0  0  0
   37.3015   43.4095   18.1384 C   0  0  0  0  0  0  0  0  0  0  0  0
   31.5852   45.1250   16.0179 C   0  0  0  0  0  0  0  0  0  0  0  0
   35.7997   42.5237   20.2897 O   0  0  0  0  0  0  0  0  0  0  0  0
   38.3337   44.5492   17.7593 C   0  0  0  0  0  0  0  0  0  0  0  0
   32.8650   41.3094   18.6899 C   0  0  0  0  0  0  0  0  0  0  0  0
   37.6499   47.9126   14.9114 O   0  0  0  0  0  0  0  0  0  0  0  0
   39.0191   46.1448   15.9442 C   0  0  0  0  0  0  0  0  0  0  0  0
   27.0272   42.4211   19.6263 C   0  0  0  0  0  0  0  0  0  0  0  0
   33.1654   44.6507   17.8839 C   0  0  0  0  0  0  0  0  0  0  0  0
   35.2427   41.8388   19.2896 C   0  0  0  0  0  0  0  0  0  0  0  0
   25.9299   42.1418   20.7028 C   0  0  0  0  0  0  0  0  0  0  0  0
   27.7385   40.2157   20.1666 O   0  0  0  0  0  0  0  0  0  0  0  0
   35.4775   40.6155   19.1134 O   0  0  0  0  0  0  0  0  0  0  0  0
   27.9046   41.2044   19.4307 C   0  0  0  0  0  0  0  0  0  0  0  0
   29.0961   41.3429   18.6861 N   0  0  0  0  0  0  0  0  0  0  0  0
   32.0957   44.2217   16.9644 N   0  0  0  0  0  0  0  0  0  0  0  0
   37.9019   45.3415   16.5036 C   0  0  0  0  0  0  0  0  0  0  0  0
  1 12  1  0
  1 19  2  0
  1 24  1  0
  2  3  1  0
  2  9  1  0
  2 29  1  0
  3  5  1  0
  4 31  1  0
  6  9  1  0
  6 10  1  0
  6 19  1  0
  7 16  2  0
  8 16  1  0
 10 30  1  0
 11 12  1  0
 11 15  1  0
 12 23  1  0
 13 14  1  0
 13 20  1  0
 13 21  1  0
 15 18  1  0
 16 30  1  0
 17 24  2  0
 18 31  1  0
 21 31  1  0
 22 25  1  0
 22 28  1  0
 23 30  1  0
 24 27  1  0
 26 28  2  0
 28 29  1  0
M  END
$$$$
