
     RDKit          3D

 31 33  0  0  0  0  0  0  0  0999 V2000
   31.2561   42.3505   17.0040 C   0  0  0  0  0  0  0  0  0  0  0  0
   30.7895   44.7997   15.3537 C   0  0  0  0  0  0  0  0  0  0  0  0
   27.6250   40.3505   19.3147 C   0  0  0  0  0  0  0  0  0  0  0  0
   29.9705   42.6483   17.0618 N   0  0  0  0  0  0  0  0  0  0  0  0
   31.7561   41.0632   17.5572 C   0  0  0  0  0  0  0  0  0  0  0  0
   32.2397   43.2106   16.4630 C   0  0  0  0  0  0  0  0  0  0  0  0
   38.1536   45.3144   16.7228 C   0  0  0  0  0  0  0  0  0  0  0  0
   37.6104   48.0208   14.5570 C   0  0  0  0  0  0  0  0  0  0  0  0
   36.9112   44.7497   16.5258 N   0  0  0  0  0  0  0  0  0  0  0  0
   36.3547   43.8930   17.3892 C   0  0  0  0  0  0  0  0  0  0  0  0
   31.9697   44.3395   15.7196 N   0  0  0  0  0  0  0  0  0  0  0  0
   26.4754   42.9020   20.2969 C   0  0  0  0  0  0  0  0  0  0  0  0
   30.9645   39.9952   17.3985 O   0  0  0  0  0  0  0  0  0  0  0  0
   38.2246   46.6125   14.5619 C   0  0  0  0  0  0  0  0  0  0  0  0
   33.6897   42.8046   16.5726 C   0  0  0  0  0  0  0  0  0  0  0  0
   38.7684   46.0955   15.7223 N   0  0  0  0  0  0  0  0  0  0  0  0
   37.6418   45.6352   13.5127 C   0  0  0  0  0  0  0  0  0  0  0  0
   35.0772   40.5404   19.4851 O   0  0  0  0  0  0  0  0  0  0  0  0
   35.2401   41.7606   18.9903 C   0  0  0  0  0  0  0  0  0  0  0  0
   34.1288   42.0856   17.9174 C   0  0  0  0  0  0  0  0  0  0  0  0
   29.1220   43.4957   16.5121 C   0  0  0  0  0  0  0  0  0  0  0  0
   35.0150   43.1967   17.0491 C   0  0  0  0  0  0  0  0  0  0  0  0
   37.0022   43.6140   18.6345 C   0  0  0  0  0  0  0  0  0  0  0  0
   38.2384   44.2292   18.8620 C   0  0  0  0  0  0  0  0  0  0  0  0
   38.8501   45.0456   17.9468 C   0  0  0  0  0  0  0  0  0  0  0  0
   33.0832   40.8900   18.1084 C   0  0  0  0  0  0  0  0  0  0  0  0
   27.9647   41.5763   18.5090 C   0  0  0  0  0  0  0  0  0  0  0  0
   40.2538   45.5588   18.1949 C   0  0  0  0  0  0  0  0  0  0  0  0
   36.2820   42.6236   19.5240 C   0  0  0  0  0  0  0  0  0  0  0  0
   29.4880   44.5133   15.6411 C   0  0  0  0  0  0  0  0  0  0  0  0
   27.5220   42.8844   19.1116 C   0  0  0  0  0  0  0  0  0  0  0  0
  1  4  1  0
  1  5  1  0
  1  6  2  0
  2 11  2  0
  2 30  1  0
  3 27  1  0
  4 21  2  0
  5 13  1  0
  5 26  2  0
  6 11  1  0
  6 15  1  0
  7  9  1  0
  7 16  2  3
  7 25  1  0
  8 14  1  0
  9 10  2  0
 10 22  1  0
 10 23  1  0
 12 31  1  0
 14 16  1  0
 14 17  1  0
 15 20  1  0
 15 22  1  0
 18 19  1  0
 19 20  1  0
 19 29  1  0
 20 26  1  0
 21 30  1  0
 23 24  1  0
 23 29  1  0
 24 25  2  0
 25 28  1  0
 27 31  2  3
M  END
$$$$
