
     RDKit          3D

 32 35  0  0  0  0  0  0  0  0999 V2000
   35.7381   42.0765   19.3970 C   0  0  0  0  0  0  0  0  0  0  0  0
   31.6483   40.6816   18.5981 C   0  0  0  0  0  0  0  0  0  0  0  0
   34.7274   44.5439   16.7278 N   0  0  0  0  0  0  0  0  0  0  0  0
   30.4378   39.2969   20.1837 C   0  0  0  0  0  0  0  0  0  0  0  0
   39.1613   45.2582   17.8065 C   0  0  0  0  0  0  0  0  0  0  0  0
   29.2252   40.6727   18.6339 C   0  0  0  0  0  0  0  0  0  0  0  0
   35.1155   43.5236   17.5713 C   0  0  0  0  0  0  0  0  0  0  0  0
   32.4949   44.6231   15.6118 C   0  0  0  0  0  0  0  0  0  0  0  0
   30.4012   41.1513   18.0890 C   0  0  0  0  0  0  0  0  0  0  0  0
   30.1742   44.0082   15.6695 C   0  0  0  0  0  0  0  0  0  0  0  0
   27.7491   39.3472   20.3817 Cl  0  0  0  0  0  0  0  0  0  0  0  0
   34.3992   42.5020   19.9675 C   0  0  0  0  0  0  0  0  0  0  0  0
   31.6390   39.7150   19.6118 C   0  0  0  0  0  0  0  0  0  0  0  0
   36.1018   43.2198   18.4996 N   0  0  0  0  0  0  0  0  0  0  0  0
   31.2532   44.6418   15.2255 N   0  0  0  0  0  0  0  0  0  0  0  0
   39.7171   46.0040   16.8010 O   0  0  0  0  0  0  0  0  0  0  0  0
   37.3572   43.8233   18.6511 C   0  0  0  0  0  0  0  0  0  0  0  0
   37.8976   44.6442   17.6650 C   0  0  0  0  0  0  0  0  0  0  0  0
   29.8182   43.0361   16.4074 C   0  0  0  0  0  0  0  0  0  0  0  0
   40.9133   47.7428   15.7296 C   0  0  0  0  0  0  0  0  0  0  0  0
   33.0338   41.1616   18.1775 C   0  0  0  0  0  0  0  0  0  0  0  0
   37.3353   44.8865   16.5259 O   0  0  0  0  0  0  0  0  0  0  0  0
   33.3890   42.5255   18.8438 C   0  0  0  0  0  0  0  0  0  0  0  0
   40.8580   46.8806   17.0010 C   0  0  0  0  0  0  0  0  0  0  0  0
   38.0465   43.6162   19.7838 C   0  0  0  0  0  0  0  0  0  0  0  0
   39.8356   45.0616   18.9682 C   0  0  0  0  0  0  0  0  0  0  0  0
   30.9812   45.6424   14.0156 C   0  0  0  0  0  0  0  0  0  0  0  0
   29.2677   39.8136   19.6816 C   0  0  0  0  0  0  0  0  0  0  0  0
   34.0915   42.4345   17.5353 C   0  0  0  0  0  0  0  0  0  0  0  0
   33.6166   44.6637   16.0491 C   0  0  0  0  0  0  0  0  0  0  0  0
   30.2280   42.0588   17.0899 C   0  0  0  0  0  0  0  0  0  0  0  0
   39.2909   44.2504   19.9579 C   0  0  0  0  0  0  0  0  0  0  0  0
  1 12  1  0
  1 14  1  0
  2  9  1  0
  2 13  1  0
  2 21  1  0
  3  7  2  3
  3 30  1  0
  4 13  2  0
  4 28  1  0
  5 16  1  0
  5 18  2  0
  5 26  1  0
  6  9  1  0
  6 28  2  0
  7 14  1  0
  7 29  1  0
  8 15  1  0
  8 30  3  0
  9 31  2  0
 10 15  1  0
 10 19  1  0
 11 28  1  0
 12 23  1  0
 14 17  1  0
 15 27  1  0
 16 24  1  0
 17 18  1  0
 17 25  2  0
 18 22  1  0
 19 31  2  0
 20 24  1  0
 21 23  1  0
 23 29  1  0
 25 32  1  0
 26 32  2  0
M  END
$$$$
