
     RDKit          3D

 25 29  0  0  0  0  0  0  0  0999 V2000
   11.1087   31.8318   16.3179 C   0  0  0  0  0  0  0  0  0  0  0  0
   13.4737   35.8314   11.3144 O   0  0  0  0  0  0  0  0  0  0  0  0
   15.2272   32.4116   14.8163 C   0  0  0  0  0  0  0  0  0  0  0  0
   12.8807   34.8728   15.4261 N   0  0  0  0  0  0  0  0  0  0  0  0
   15.1646   34.6086   12.6347 C   0  0  0  0  0  0  0  0  0  0  0  0
   13.6945   35.6447   14.6135 C   0  0  0  0  0  0  0  0  0  0  0  0
   11.1982   30.6070   15.8397 N   0  0  0  0  0  0  0  0  0  0  0  0
   13.5493   37.0198   14.9153 C   0  0  0  0  0  0  0  0  0  0  0  0
   16.4378   32.1709   14.2993 C   0  0  0  0  0  0  0  0  0  0  0  0
   14.7113   35.2906   11.4181 C   0  0  0  0  0  0  0  0  0  0  0  0
    9.9190   33.5947   17.1713 C   0  0  0  0  0  0  0  0  0  0  0  0
   11.1462   34.0737   16.6214 C   0  0  0  0  0  0  0  0  0  0  0  0
   11.8674   35.2605   16.2965 C   0  0  0  0  0  0  0  0  0  0  0  0
   14.2952   33.4135   14.6287 C   0  0  0  0  0  0  0  0  0  0  0  0
   16.3489   33.8842   12.5286 C   0  0  0  0  0  0  0  0  0  0  0  0
   16.9521   32.9269   13.2350 C   0  0  0  0  0  0  0  0  0  0  0  0
   14.4741   34.6233   13.8756 C   0  0  0  0  0  0  0  0  0  0  0  0
   13.0681   33.4479   15.3424 N   0  0  0  0  0  0  0  0  0  0  0  0
   12.6090   37.4239   15.9054 N   0  0  0  0  0  0  0  0  0  0  0  0
   11.0223   36.9343   17.6082 O   0  0  0  0  0  0  0  0  0  0  0  0
    9.8215   32.2284   16.9596 C   0  0  0  0  0  0  0  0  0  0  0  0
   11.0160   29.2919   16.1093 N   0  0  0  0  0  0  0  0  0  0  0  0
   11.7976   36.5842   16.6365 C   0  0  0  0  0  0  0  0  0  0  0  0
   11.8573   32.9589   16.0361 C   0  0  0  0  0  0  0  0  0  0  0  0
   15.5276   35.6292   10.3938 N   0  0  0  0  0  0  0  0  0  0  0  0
  1  7  1  0
  1 21  1  0
  1 24  2  0
  2 10  2  0
  3  9  2  0
  3 14  1  0
  4  6  1  0
  4 13  1  0
  4 18  1  0
  5 10  1  0
  5 15  1  0
  5 17  1  0
  6  8  2  0
  6 17  1  0
  7 22  1  0
  8 19  1  0
  9 16  1  0
 10 25  1  0
 11 12  1  0
 11 21  1  0
 12 13  1  0
 12 24  1  0
 13 23  1  0
 14 17  1  0
 14 18  1  0
 15 16  2  0
 18 24  1  0
 19 23  1  0
 20 23  2  0
M  END
$$$$
