
     RDKit          3D

 28 32  0  0  0  0  0  0  0  0999 V2000
   38.5788   46.6076   42.3781 C   0  0  0  0  0  0  0  0  0  0  0  0
   39.0433   47.7090   41.5868 C   0  0  0  0  0  0  0  0  0  0  0  0
   39.9137   46.3711   39.8161 O   0  0  0  0  0  0  0  0  0  0  0  0
   39.8040   47.4978   40.3194 C   0  0  0  0  0  0  0  0  0  0  0  0
   37.1518   51.7264   43.4340 C   0  0  0  0  0  0  0  0  0  0  0  0
   37.9351   46.8036   43.5507 N   0  0  0  0  0  0  0  0  0  0  0  0
   34.3837   54.0319   45.4001 C   0  0  0  0  0  0  0  0  0  0  0  0
   37.7442   48.0078   43.9754 C   0  0  0  0  0  0  0  0  0  0  0  0
   35.6851   54.3641   43.6250 C   0  0  0  0  0  0  0  0  0  0  0  0
   38.7964   48.9204   42.0948 C   0  0  0  0  0  0  0  0  0  0  0  0
   36.1400   52.0881   44.5305 C   0  0  0  0  0  0  0  0  0  0  0  0
   32.5254   58.6274   44.7407 C   0  0  0  0  0  0  0  0  0  0  0  0
   35.0331   55.4785   43.8701 N   0  0  0  0  0  0  0  0  0  0  0  0
   37.8606   50.4530   43.9110 C   0  0  0  0  0  0  0  0  0  0  0  0
   36.4364   53.9064   42.4155 C   0  0  0  0  0  0  0  0  0  0  0  0
   31.4125   57.8933   45.0020 N   0  0  0  0  0  0  0  0  0  0  0  0
   34.0065   55.2892   44.8500 N   0  0  0  0  0  0  0  0  0  0  0  0
   40.3219   48.5777   39.6788 N   0  0  0  0  0  0  0  0  0  0  0  0
   31.8435   56.5169   45.1051 C   0  0  0  0  0  0  0  0  0  0  0  0
   35.0509   50.9578   44.4018 C   0  0  0  0  0  0  0  0  0  0  0  0
   36.6044   52.3910   42.1644 C   0  0  0  0  0  0  0  0  0  0  0  0
   35.2008   51.8195   41.8171 C   0  0  0  0  0  0  0  0  0  0  0  0
   35.4101   53.4267   44.6606 C   0  0  0  0  0  0  0  0  0  0  0  0
   38.7415   45.3050   42.0582 N   0  0  0  0  0  0  0  0  0  0  0  0
   38.1483   49.1126   43.2928 N   0  0  0  0  0  0  0  0  0  0  0  0
   33.5992   57.7412   44.6748 C   0  0  0  0  0  0  0  0  0  0  0  0
   34.6577   50.8692   42.8971 C   0  0  0  0  0  0  0  0  0  0  0  0
   33.1667   56.4501   44.9204 C   0  0  0  0  0  0  0  0  0  0  0  0
  1  2  1  0
  1  6  1  0
  1 24  2  0
  2  4  1  0
  2 10  2  0
  3  4  2  0
  4 18  1  0
  5 11  1  0
  5 14  1  0
  5 21  1  0
  6  8  2  0
  7 17  1  0
  7 23  1  0
  8 25  1  0
  9 13  1  0
  9 15  1  0
  9 23  2  0
 10 25  1  0
 11 20  1  0
 11 23  1  0
 12 16  1  0
 12 26  1  0
 13 17  1  0
 14 25  1  0
 15 21  1  0
 16 19  1  0
 17 28  1  0
 19 28  1  0
 20 27  1  0
 21 22  1  0
 22 27  1  0
 26 28  1  0
M  END
$$$$
