
     RDKit          3D

 31 33  0  0  0  0  0  0  0  0999 V2000
   38.1269   46.0189   38.7566 C   0  0  0  0  0  0  0  0  0  0  0  0
   35.8904   51.5230   46.0364 C   0  0  0  0  0  0  0  0  0  0  0  0
   35.1424   52.0917   41.4585 O   0  0  0  0  0  0  0  0  0  0  0  0
   35.5381   51.3448   44.5874 C   0  0  0  0  0  0  0  0  0  0  0  0
   32.7100   59.2298   44.5929 N   0  0  0  0  0  0  0  0  0  0  0  0
   37.0751   53.7531   41.7934 C   0  0  0  0  0  0  0  0  0  0  0  0
   38.5636   49.9447   41.2066 C   0  0  0  0  0  0  0  0  0  0  0  0
   38.8849   47.7538   40.3159 C   0  0  0  0  0  0  0  0  0  0  0  0
   32.3078   57.4425   42.8799 C   0  0  0  0  0  0  0  0  0  0  0  0
   38.0872   50.8834   42.0162 C   0  0  0  0  0  0  0  0  0  0  0  0
   33.5230   56.7723   42.7432 C   0  0  0  0  0  0  0  0  0  0  0  0
   34.3906   54.9755   46.0354 C   0  0  0  0  0  0  0  0  0  0  0  0
   34.0171   55.7544   43.7542 C   0  0  0  0  0  0  0  0  0  0  0  0
   35.8938   52.4754   43.7240 N   0  0  0  0  0  0  0  0  0  0  0  0
   33.8534   55.8934   45.1268 C   0  0  0  0  0  0  0  0  0  0  0  0
   39.6785   48.2318   39.2648 C   0  0  0  0  0  0  0  0  0  0  0  0
   38.7896   46.6130   37.6970 C   0  0  0  0  0  0  0  0  0  0  0  0
   35.7939   52.9068   46.4693 C   0  0  0  0  0  0  0  0  0  0  0  0
   35.2449   53.7124   44.1479 C   0  0  0  0  0  0  0  0  0  0  0  0
   38.2133   46.5843   40.0605 C   0  0  0  0  0  0  0  0  0  0  0  0
   34.7690   54.6643   43.2829 C   0  0  0  0  0  0  0  0  0  0  0  0
   34.7127   50.2091   43.8012 C   0  0  0  0  0  0  0  0  0  0  0  0
   35.1089   53.8769   45.5528 C   0  0  0  0  0  0  0  0  0  0  0  0
   31.8327   58.3657   43.8505 C   0  0  0  0  0  0  0  0  0  0  0  0
   36.1330   52.6217   42.2302 C   0  0  0  0  0  0  0  0  0  0  0  0
   38.6539   48.5854   41.5360 C   0  0  0  0  0  0  0  0  0  0  0  0
   37.8047   50.5239   43.3336 C   0  0  0  0  0  0  0  0  0  0  0  0
   39.5994   47.7143   37.9804 C   0  0  0  0  0  0  0  0  0  0  0  0
   38.4258   48.3003   42.9133 C   0  0  0  0  0  0  0  0  0  0  0  0
   38.0177   49.2595   43.7953 C   0  0  0  0  0  0  0  0  0  0  0  0
   38.5995   46.9218   43.5292 C   0  0  0  0  0  0  0  0  0  0  0  0
  1 17  2  0
  1 20  1  0
  2  4  1  0
  2 18  1  0
  3 25  2  0
  4 14  1  0
  4 22  1  0
  5 24  1  0
  6 25  1  0
  7 10  2  0
  7 26  1  0
  8 16  1  0
  8 20  2  0
  8 26  1  0
  9 11  1  0
  9 24  1  0
 10 27  1  0
 11 13  1  0
 12 15  2  0
 12 23  1  0
 13 15  1  0
 13 21  2  0
 14 19  1  0
 14 25  1  0
 16 28  2  0
 17 28  1  0
 18 23  1  0
 19 21  1  0
 19 23  2  0
 26 29  1  0
 27 30  1  0
 29 30  2  0
 29 31  1  0
M  END
$$$$
