
     RDKit          3D

 33 35  0  0  0  0  0  0  0  0999 V2000
   34.0629   54.1513   44.9691 C   0  0  0  0  0  0  0  0  0  0  0  0
   33.1470   54.8318   45.6758 N   0  0  0  0  0  0  0  0  0  0  0  0
   34.7506   52.9471   45.1957 O   0  0  0  0  0  0  0  0  0  0  0  0
   34.4202   54.7880   43.8058 N   0  0  0  0  0  0  0  0  0  0  0  0
   38.8415   47.8128   43.4314 C   0  0  0  0  0  0  0  0  0  0  0  0
   36.3168   54.2673   42.2222 N   0  0  0  0  0  0  0  0  0  0  0  0
   34.6439   51.4767   43.1782 C   0  0  0  0  0  0  0  0  0  0  0  0
   31.9729   59.3235   44.7792 N   0  0  0  0  0  0  0  0  0  0  0  0
   35.5105   52.6439   43.8370 C   0  0  0  0  0  0  0  0  0  0  0  0
   32.8484   56.0103   44.9633 C   0  0  0  0  0  0  0  0  0  0  0  0
   38.1899   46.6550   38.0792 C   0  0  0  0  0  0  0  0  0  0  0  0
   38.6179   49.1146   41.3411 C   0  0  0  0  0  0  0  0  0  0  0  0
   38.5261   48.9963   42.7425 C   0  0  0  0  0  0  0  0  0  0  0  0
   33.6165   56.0236   43.8265 C   0  0  0  0  0  0  0  0  0  0  0  0
   29.7156   58.0932   45.1520 C   0  0  0  0  0  0  0  0  0  0  0  0
   31.9359   57.0579   45.5423 C   0  0  0  0  0  0  0  0  0  0  0  0
   38.6469   55.0362   41.7166 C   0  0  0  0  0  0  0  0  0  0  0  0
   39.2750   54.9359   40.5116 N   0  0  0  0  0  0  0  0  0  0  0  0
   37.5289   54.3875   41.9641 C   0  0  0  0  0  0  0  0  0  0  0  0
   38.0491   50.0868   43.5114 C   0  0  0  0  0  0  0  0  0  0  0  0
   38.7750   47.7949   44.8273 C   0  0  0  0  0  0  0  0  0  0  0  0
   35.4109   53.9622   43.1361 C   0  0  0  0  0  0  0  0  0  0  0  0
   39.6924   47.0905   38.1824 C   0  0  0  0  0  0  0  0  0  0  0  0
   39.1586   56.0288   42.5028 N   0  0  0  0  0  0  0  0  0  0  0  0
   40.0186   56.7537   41.6761 C   0  0  0  0  0  0  0  0  0  0  0  0
   38.3384   48.8964   45.5571 C   0  0  0  0  0  0  0  0  0  0  0  0
   39.5588   48.7404   40.5975 N   0  0  0  0  0  0  0  0  0  0  0  0
   37.5097   51.2898   42.8224 C   0  0  0  0  0  0  0  0  0  0  0  0
   38.2192   46.2104   36.4999 C   0  0  0  0  0  0  0  0  0  0  0  0
   31.1873   58.0967   44.7721 C   0  0  0  0  0  0  0  0  0  0  0  0
   38.0204   50.0652   44.8806 C   0  0  0  0  0  0  0  0  0  0  0  0
   40.0720   56.0596   40.4080 C   0  0  0  0  0  0  0  0  0  0  0  0
   36.8554   52.1356   43.8664 N   0  0  0  0  0  0  0  0  0  0  0  0
  1  2  2  0
  1  3  1  0
  1  4  1  0
  2 10  1  0
  3  9  1  0
  4 14  1  0
  4 22  1  0
  5 13  2  0
  5 21  1  0
  6 19  1  0
  6 22  2  3
  7  9  1  0
  8 30  1  0
  9 22  1  0
  9 33  1  0
 10 14  1  0
 10 16  1  0
 11 23  1  0
 11 29  1  0
 12 13  1  0
 12 27  2  0
 13 20  1  0
 15 30  1  0
 16 30  1  0
 17 18  2  0
 17 19  1  0
 17 24  1  0
 18 32  1  0
 20 28  1  0
 20 31  2  0
 21 26  2  0
 24 25  1  0
 25 32  1  0
 26 31  1  0
 28 33  1  0
M  END
$$$$
