
     RDKit          3D

 41 44  0  0  0  0  0  0  0  0999 V2000
   35.8523   52.5778   42.7593 N   0  0  0  0  0  0  0  0  0  0  0  0
   33.6182   55.4610   39.9189 O   0  0  0  0  0  0  0  0  0  0  0  0
   36.5104   54.9655   44.1547 C   0  0  0  0  0  0  0  0  0  0  0  0
   38.2388   46.2581   36.6029 C   0  0  0  0  0  0  0  0  0  0  0  0
   37.9262   49.1037   44.4619 C   0  0  0  0  0  0  0  0  0  0  0  0
   35.3199   52.4685   41.4083 C   0  0  0  0  0  0  0  0  0  0  0  0
   33.3541   57.0810   45.6136 C   0  0  0  0  0  0  0  0  0  0  0  0
   36.4115   49.3154   44.3450 C   0  0  0  0  0  0  0  0  0  0  0  0
   31.9335   56.7891   45.8171 C   0  0  0  0  0  0  0  0  0  0  0  0
   34.0872   55.8461   45.5445 C   0  0  0  0  0  0  0  0  0  0  0  0
   34.5844   51.2259   44.5007 C   0  0  0  0  0  0  0  0  0  0  0  0
   33.5493   53.4096   45.6420 C   0  0  0  0  0  0  0  0  0  0  0  0
   33.1524   54.7817   45.8913 C   0  0  0  0  0  0  0  0  0  0  0  0
   34.3982   52.6660   44.8185 C   0  0  0  0  0  0  0  0  0  0  0  0
   31.0842   57.6898   45.3438 O   0  0  0  0  0  0  0  0  0  0  0  0
   37.9967   51.2123   42.7805 C   0  0  0  0  0  0  0  0  0  0  0  0
   41.0329   57.9103   41.4997 O   0  0  0  0  0  0  0  0  0  0  0  0
   38.6546   46.3832   42.0108 C   0  0  0  0  0  0  0  0  0  0  0  0
   40.1295   47.3230   37.8927 C   0  0  0  0  0  0  0  0  0  0  0  0
   40.1215   56.9729   41.7025 C   0  0  0  0  0  0  0  0  0  0  0  0
   37.8231   55.6237   44.3583 C   0  0  0  0  0  0  0  0  0  0  0  0
   31.9066   55.3138   45.9273 O   0  0  0  0  0  0  0  0  0  0  0  0
   36.4174   53.8775   43.1222 C   0  0  0  0  0  0  0  0  0  0  0  0
   36.6297   51.5143   43.2961 C   0  0  0  0  0  0  0  0  0  0  0  0
   37.5986   53.7171   42.3708 C   0  0  0  0  0  0  0  0  0  0  0  0
   38.3267   47.7041   44.2312 C   0  0  0  0  0  0  0  0  0  0  0  0
   38.4275   46.1836   39.3221 C   0  0  0  0  0  0  0  0  0  0  0  0
   38.5867   46.9574   37.9720 C   0  0  0  0  0  0  0  0  0  0  0  0
   38.4899   54.8309   42.1401 C   0  0  0  0  0  0  0  0  0  0  0  0
   39.4183   56.9030   42.9293 C   0  0  0  0  0  0  0  0  0  0  0  0
   34.2660   53.3203   41.2413 C   0  0  0  0  0  0  0  0  0  0  0  0
   35.4871   55.4299   45.2245 C   0  0  0  0  0  0  0  0  0  0  0  0
   33.1324   52.8350   40.3981 C   0  0  0  0  0  0  0  0  0  0  0  0
   38.9218   46.9821   40.6156 C   0  0  0  0  0  0  0  0  0  0  0  0
   37.8410   47.0533   43.0263 C   0  0  0  0  0  0  0  0  0  0  0  0
   34.4422   54.8762   41.1835 C   0  0  0  0  0  0  0  0  0  0  0  0
   39.1845   54.9237   40.9649 C   0  0  0  0  0  0  0  0  0  0  0  0
   33.8000   58.1929   45.1089 O   0  0  0  0  0  0  0  0  0  0  0  0
   39.9576   55.9980   40.7270 C   0  0  0  0  0  0  0  0  0  0  0  0
   38.5968   55.8108   43.1282 C   0  0  0  0  0  0  0  0  0  0  0  0
   35.9716   50.7186   44.3208 C   0  0  0  0  0  0  0  0  0  0  0  0
  1  6  1  0
  1 23  1  0
  1 24  1  0
  2 36  1  0
  3 21  1  0
  3 23  1  0
  3 32  1  0
  4 28  1  0
  5  8  1  0
  5 26  1  0
  6 31  1  0
  7  9  1  0
  7 10  2  0
  7 38  1  0
  8 41  1  0
  9 15  2  0
  9 22  1  0
 10 13  1  0
 10 32  1  0
 11 14  1  0
 11 41  1  0
 12 13  1  0
 12 14  2  3
 13 22  1  0
 16 24  1  0
 17 20  1  0
 18 34  1  0
 18 35  1  0
 19 28  1  0
 20 30  2  0
 20 39  1  0
 21 40  1  0
 23 25  1  0
 24 41  1  0
 25 29  1  0
 26 35  1  0
 27 28  1  0
 27 34  1  0
 29 37  1  0
 29 40  2  0
 30 40  1  0
 31 33  1  0
 31 36  1  0
 37 39  2  0
M  END
$$$$
