
     RDKit          3D

 26 27  0  0  0  0  0  0  0  0999 V2000
   35.7078   51.2975   43.9967 C   0  0  0  0  0  0  0  0  0  0  0  0
   31.9919   59.5892   45.2957 O   0  0  0  0  0  0  0  0  0  0  0  0
   34.1126   52.9416   45.1239 C   0  0  0  0  0  0  0  0  0  0  0  0
   38.2048   46.3110   38.2617 C   0  0  0  0  0  0  0  0  0  0  0  0
   34.3500   55.2961   44.5594 C   0  0  0  0  0  0  0  0  0  0  0  0
   37.0597   51.6272   43.2079 C   0  0  0  0  0  0  0  0  0  0  0  0
   37.7806   50.3047   43.1553 C   0  0  0  0  0  0  0  0  0  0  0  0
   39.9460   48.0387   39.3718 C   0  0  0  0  0  0  0  0  0  0  0  0
   39.6069   46.9838   38.3462 C   0  0  0  0  0  0  0  0  0  0  0  0
   35.4968   54.9573   43.8344 C   0  0  0  0  0  0  0  0  0  0  0  0
   36.2007   50.2046   44.9415 C   0  0  0  0  0  0  0  0  0  0  0  0
   35.1724   52.6422   44.3335 C   0  0  0  0  0  0  0  0  0  0  0  0
   36.9435   49.2834   43.9133 C   0  0  0  0  0  0  0  0  0  0  0  0
   38.4742   49.9061   42.0239 N   0  0  0  0  0  0  0  0  0  0  0  0
   31.7663   58.7199   44.0940 C   0  0  0  0  0  0  0  0  0  0  0  0
   32.6213   56.9092   45.4073 C   0  0  0  0  0  0  0  0  0  0  0  0
   38.8461   47.0789   41.2526 O   0  0  0  0  0  0  0  0  0  0  0  0
   37.6312   53.9460   42.1841 C   0  0  0  0  0  0  0  0  0  0  0  0
   37.0051   53.0569   43.0711 O   0  0  0  0  0  0  0  0  0  0  0  0
   31.5279   57.2898   44.4639 C   0  0  0  0  0  0  0  0  0  0  0  0
   39.4000   49.2352   41.5040 N   0  0  0  0  0  0  0  0  0  0  0  0
   33.6757   54.2891   45.2286 C   0  0  0  0  0  0  0  0  0  0  0  0
   35.8798   53.6262   43.7330 C   0  0  0  0  0  0  0  0  0  0  0  0
   34.6427   50.5777   43.0947 C   0  0  0  0  0  0  0  0  0  0  0  0
   39.3065   48.0631   40.7679 C   0  0  0  0  0  0  0  0  0  0  0  0
   33.8852   56.7495   44.6211 C   0  0  0  0  0  0  0  0  0  0  0  0
  1  6  1  0
  1 11  1  0
  1 12  1  0
  1 24  1  0
  2 15  1  0
  3 12  1  0
  3 22  2  0
  4  9  1  0
  5 10  2  0
  5 22  1  0
  5 26  1  0
  6  7  1  0
  7 13  1  0
  7 14  1  0
  8  9  1  0
  8 25  1  0
 10 23  1  0
 11 13  1  0
 12 23  2  0
 14 21  1  0
 15 20  1  0
 16 20  1  0
 16 26  1  0
 17 25  2  0
 18 19  1  0
 19 23  1  0
 21 25  1  0
M  END
$$$$
