
     RDKit          3D

 28 29  0  0  0  0  0  0  0  0999 V2000
   27.6569   35.6296  103.4261 C   0  0  0  0  0  0  0  0  0  0  0  0
   29.0877   36.0561  103.5672 C   0  0  0  0  0  0  0  0  0  0  0  0
   31.1022   35.4014  104.4710 C   0  0  0  0  0  0  0  0  0  0  0  0
   32.0763   33.6831  101.9472 O   0  0  0  0  0  0  0  0  0  0  0  0
   29.5797   36.8814  103.7691 O   0  0  0  0  0  0  0  0  0  0  0  0
   24.9768   34.2799  105.7122 N   0  0  0  0  0  0  0  0  0  0  0  0
   23.5912   31.9090  105.6199 C   0  0  0  0  0  0  0  0  0  0  0  0
   27.0014   35.9271  102.2479 C   0  0  0  0  0  0  0  0  0  0  0  0
   26.9418   34.9713  104.4287 C   0  0  0  0  0  0  0  0  0  0  0  0
   23.5999   35.0422  105.6640 C   0  0  0  0  0  0  0  0  0  0  0  0
   31.5997   33.1870  103.1953 C   0  0  0  0  0  0  0  0  0  0  0  0
   31.6819   34.3694  105.2517 C   0  0  0  0  0  0  0  0  0  0  0  0
   23.9017   35.7721  100.4305 F   0  0  0  0  0  0  0  0  0  0  0  0
   30.2012   35.1141  103.4782 C   0  0  0  0  0  0  0  0  0  0  0  0
   22.3149   32.9253  105.8625 C   0  0  0  0  0  0  0  0  0  0  0  0
   25.1092   36.2635  100.7496 C   0  0  0  0  0  0  0  0  0  0  0  0
   25.1300   34.5175  108.3670 O   0  0  0  0  0  0  0  0  0  0  0  0
   24.9968   35.0278  102.9996 C   0  0  0  0  0  0  0  0  0  0  0  0
   30.2026   33.6454  103.3856 C   0  0  0  0  0  0  0  0  0  0  0  0
   25.5935   34.7060  104.2964 C   0  0  0  0  0  0  0  0  0  0  0  0
   26.0366   35.8569   99.7598 F   0  0  0  0  0  0  0  0  0  0  0  0
   25.5794   34.1550  107.1574 C   0  0  0  0  0  0  0  0  0  0  0  0
   25.1171   37.6287  100.8080 F   0  0  0  0  0  0  0  0  0  0  0  0
   26.5980   33.4576  107.5435 O   0  0  0  0  0  0  0  0  0  0  0  0
   29.0285   33.1156  103.2165 O   0  0  0  0  0  0  0  0  0  0  0  0
   32.3825   33.6252  104.2820 C   0  0  0  0  0  0  0  0  0  0  0  0
   25.6791   35.6896  102.0113 C   0  0  0  0  0  0  0  0  0  0  0  0
   22.6437   34.2696  106.7424 C   0  0  0  0  0  0  0  0  0  0  0  0
  1  2  1  0
  1  8  1  0
  1  9  2  0
  2  5  2  0
  2 14  1  0
  3 12  1  0
  3 14  1  0
  4 11  1  0
  6 10  1  0
  6 20  1  0
  6 22  1  0
  7 15  1  0
  8 27  2  0
  9 20  1  0
 10 28  1  0
 11 19  1  0
 11 26  1  0
 12 26  1  0
 13 16  1  0
 14 19  1  0
 15 28  1  0
 16 21  1  0
 16 23  1  0
 16 27  1  0
 17 22  2  0
 18 20  2  0
 18 27  1  0
 19 25  1  0
 22 24  1  0
M  END
$$$$
