
     RDKit          3D

 28 29  0  0  0  0  0  0  0  0999 V2000
   31.9570   33.2644  103.6877 N   0  0  0  0  0  0  0  0  0  0  0  0
   28.8293   35.8464  103.8059 C   0  0  0  0  0  0  0  0  0  0  0  0
   23.7147   32.6483  106.1768 C   0  0  0  0  0  0  0  0  0  0  0  0
   25.1169   35.7062  101.6130 C   0  0  0  0  0  0  0  0  0  0  0  0
   24.3976   33.9730  108.1091 C   0  0  0  0  0  0  0  0  0  0  0  0
   26.4877   35.0598  103.2898 C   0  0  0  0  0  0  0  0  0  0  0  0
   29.8578   34.7775  103.8688 C   0  0  0  0  0  0  0  0  0  0  0  0
   31.8108   33.9306  104.9239 C   0  0  0  0  0  0  0  0  0  0  0  0
   24.9408   33.1432  104.1860 C   0  0  0  0  0  0  0  0  0  0  0  0
   27.6709   34.4650  105.4289 C   0  0  0  0  0  0  0  0  0  0  0  0
   24.6052   36.5270  100.5765 C   0  0  0  0  0  0  0  0  0  0  0  0
   24.7800   33.4029  105.6093 O   0  0  0  0  0  0  0  0  0  0  0  0
   27.5939   35.1911  104.1999 C   0  0  0  0  0  0  0  0  0  0  0  0
   31.3771   33.3986  102.5153 C   0  0  0  0  0  0  0  0  0  0  0  0
   23.1969   33.6477  107.2628 C   0  0  0  0  0  0  0  0  0  0  0  0
   25.3271   34.2399  103.3282 C   0  0  0  0  0  0  0  0  0  0  0  0
   32.8754   34.0771  105.5960 C   0  0  0  0  0  0  0  0  0  0  0  0
   29.3783   33.4776  103.4340 C   0  0  0  0  0  0  0  0  0  0  0  0
   30.9829   35.1115  104.6408 C   0  0  0  0  0  0  0  0  0  0  0  0
   23.4954   36.0899   99.7575 C   0  0  0  0  0  0  0  0  0  0  0  0
   24.4898   34.6944  102.2550 O   0  0  0  0  0  0  0  0  0  0  0  0
   32.0572   33.7641  101.6030 O   0  0  0  0  0  0  0  0  0  0  0  0
   30.1028   32.8665  102.4601 O   0  0  0  0  0  0  0  0  0  0  0  0
   29.2320   36.8895  103.5857 O   0  0  0  0  0  0  0  0  0  0  0  0
   31.5671   36.1850  104.6173 O   0  0  0  0  0  0  0  0  0  0  0  0
   24.9976   37.8032  100.7663 O   0  0  0  0  0  0  0  0  0  0  0  0
   25.6953   34.2601  108.0914 O   0  0  0  0  0  0  0  0  0  0  0  0
   26.3417   35.9783  102.2316 C   0  0  0  0  0  0  0  0  0  0  0  0
  1  8  1  0
  1 14  1  0
  2  7  1  0
  2 13  1  0
  2 24  2  0
  3 12  1  0
  3 15  1  0
  4 11  1  0
  4 21  1  0
  4 28  1  0
  5 15  1  0
  5 27  1  0
  6 13  1  0
  6 16  2  0
  6 28  1  0
  7 18  1  0
  7 19  1  0
  8 17  1  0
  8 19  1  0
  9 12  1  0
  9 16  1  0
 10 13  1  0
 11 20  1  0
 11 26  1  0
 14 22  2  0
 14 23  1  0
 16 21  1  0
 18 23  1  0
 19 25  2  0
M  END
$$$$
