
     RDKit          3D

 27 29  0  0  0  0  0  0  0  0999 V2000
   26.8613   36.0823  102.1155 C   0  0  0  0  0  0  0  0  0  0  0  0
   31.5067   34.0783  104.0927 C   0  0  0  0  0  0  0  0  0  0  0  0
   26.1181   34.3549  106.5435 C   0  0  0  0  0  0  0  0  0  0  0  0
   30.9235   35.3889  103.4754 C   0  0  0  0  0  0  0  0  0  0  0  0
   23.5757   34.4650  106.6224 C   0  0  0  0  0  0  0  0  0  0  0  0
   30.6359   33.9359  105.2477 C   0  0  0  0  0  0  0  0  0  0  0  0
   23.8016   33.8117  107.9243 C   0  0  0  0  0  0  0  0  0  0  0  0
   30.1389   32.6831  102.6269 C   0  0  0  0  0  0  0  0  0  0  0  0
   26.4160   36.7652  101.1276 C   0  0  0  0  0  0  0  0  0  0  0  0
   25.3838   36.7421  100.4845 C   0  0  0  0  0  0  0  0  0  0  0  0
   26.0921   34.5231  103.8662 C   0  0  0  0  0  0  0  0  0  0  0  0
   32.1981   33.7694  101.8688 O   0  0  0  0  0  0  0  0  0  0  0  0
   24.9772   34.1903  108.4778 C   0  0  0  0  0  0  0  0  0  0  0  0
   24.5367   35.8832  100.7550 C   0  0  0  0  0  0  0  0  0  0  0  0
   32.6685   33.8539  104.7434 O   0  0  0  0  0  0  0  0  0  0  0  0
   25.8728   35.2589  102.5986 C   0  0  0  0  0  0  0  0  0  0  0  0
   24.8760   34.5588  105.9475 C   0  0  0  0  0  0  0  0  0  0  0  0
   29.6208   34.6904  105.0510 C   0  0  0  0  0  0  0  0  0  0  0  0
   27.3099   34.8568  104.4925 N   0  0  0  0  0  0  0  0  0  0  0  0
   28.2934   34.3288  105.2229 C   0  0  0  0  0  0  0  0  0  0  0  0
   24.7687   35.1268  101.9860 C   0  0  0  0  0  0  0  0  0  0  0  0
   29.8272   35.8130  104.0879 C   0  0  0  0  0  0  0  0  0  0  0  0
   31.4057   33.2023  102.8874 C   0  0  0  0  0  0  0  0  0  0  0  0
   23.4132   35.7197   99.9933 O   0  0  0  0  0  0  0  0  0  0  0  0
   29.3328   36.8500  103.8369 O   0  0  0  0  0  0  0  0  0  0  0  0
   24.7284   34.5076  104.5291 C   0  0  0  0  0  0  0  0  0  0  0  0
   26.1922   34.2799  107.8121 C   0  0  0  0  0  0  0  0  0  0  0  0
  1  9  1  0
  1 16  1  0
  2  4  1  0
  2  6  1  0
  2 15  1  0
  2 23  1  0
  3 17  1  0
  3 27  2  0
  4 22  1  0
  5  7  1  0
  5 17  1  0
  6 18  1  0
  7 13  1  0
  8 23  1  0
  9 10  2  0
 10 14  1  0
 11 16  1  0
 11 19  1  0
 11 26  1  0
 12 23  1  0
 13 27  1  0
 14 21  2  0
 14 24  1  0
 16 21  1  0
 17 26  1  0
 18 20  1  0
 18 22  1  0
 19 20  1  0
 22 25  2  0
M  END
$$$$
