
     RDKit          3D

 18 19  0  0  0  0  0  0  0  0999 V2000
   28.0170   35.0701  103.4200 C   0  0  0  0  0  0  0  0  0  0  0  0
   25.6059   34.5904  107.0230 O   0  0  0  0  0  0  0  0  0  0  0  0
   24.6727   33.0166  105.8313 O   0  0  0  0  0  0  0  0  0  0  0  0
   32.2110   33.6815  102.1839 O   0  0  0  0  0  0  0  0  0  0  0  0
   30.3320   35.6795  103.7914 C   0  0  0  0  0  0  0  0  0  0  0  0
   24.4226   36.0441  100.2369 C   0  0  0  0  0  0  0  0  0  0  0  0
   25.3083   34.1363  105.9367 C   0  0  0  0  0  0  0  0  0  0  0  0
   29.9468   33.4387  103.0453 C   0  0  0  0  0  0  0  0  0  0  0  0
   25.9565   34.6243  104.6646 C   0  0  0  0  0  0  0  0  0  0  0  0
   29.3806   34.8322  103.3207 N   0  0  0  0  0  0  0  0  0  0  0  0
   25.8404   35.6393  102.3420 C   0  0  0  0  0  0  0  0  0  0  0  0
   31.4440   33.5960  103.2870 C   0  0  0  0  0  0  0  0  0  0  0  0
   25.2098   35.0458  103.5067 C   0  0  0  0  0  0  0  0  0  0  0  0
   25.0888   36.5350  101.4367 C   0  0  0  0  0  0  0  0  0  0  0  0
   27.2080   35.6811  102.3931 C   0  0  0  0  0  0  0  0  0  0  0  0
   30.1842   36.8808  103.7228 O   0  0  0  0  0  0  0  0  0  0  0  0
   27.3458   34.6505  104.5454 C   0  0  0  0  0  0  0  0  0  0  0  0
   31.4252   34.8862  104.0487 N   0  0  0  0  0  0  0  0  0  0  0  0
  1 10  1  0
  1 15  2  0
  1 17  1  0
  2  7  2  0
  3  7  1  0
  4 12  1  0
  5 10  1  0
  5 16  2  0
  5 18  1  0
  6 14  1  0
  7  9  1  0
  8 10  1  0
  8 12  1  0
  9 13  1  0
  9 17  2  0
 11 13  2  0
 11 14  1  0
 11 15  1  0
 12 18  1  0
M  END
$$$$
