
     RDKit          3D

 26 29  0  0  0  0  0  0  0  0999 V2000
   24.7660   35.2965  102.3985 C   0  0  0  0  0  0  0  0  0  0  0  0
   29.6610   36.8376  103.6055 O   0  0  0  0  0  0  0  0  0  0  0  0
   27.2592   35.4328  103.6606 C   0  0  0  0  0  0  0  0  0  0  0  0
   22.9147   34.0427  107.3643 O   0  0  0  0  0  0  0  0  0  0  0  0
   23.9556   34.3809  104.6130 C   0  0  0  0  0  0  0  0  0  0  0  0
   24.9460   34.3855  108.2880 O   0  0  0  0  0  0  0  0  0  0  0  0
   25.8340   36.1481  102.0038 C   0  0  0  0  0  0  0  0  0  0  0  0
   28.5495   33.3944  103.8389 C   0  0  0  0  0  0  0  0  0  0  0  0
   32.3915   34.0726  105.3331 C   0  0  0  0  0  0  0  0  0  0  0  0
   27.0214   36.2421  102.6092 N   0  0  0  0  0  0  0  0  0  0  0  0
   29.6862   35.6369  103.6973 C   0  0  0  0  0  0  0  0  0  0  0  0
   30.8429   34.8743  103.9375 N   0  0  0  0  0  0  0  0  0  0  0  0
   23.6546   36.5368   99.4030 N   0  0  0  0  0  0  0  0  0  0  0  0
   24.2069   36.1531  100.4947 C   0  0  0  0  0  0  0  0  0  0  0  0
   26.1489   34.9031  104.3205 C   0  0  0  0  0  0  0  0  0  0  0  0
   24.6999   34.3262  105.9309 C   0  0  0  0  0  0  0  0  0  0  0  0
   31.6533   34.0835  103.2010 C   0  0  0  0  0  0  0  0  0  0  0  0
   28.5214   34.8435  103.9342 C   0  0  0  0  0  0  0  0  0  0  0  0
   24.9104   34.8486  103.6416 C   0  0  0  0  0  0  0  0  0  0  0  0
   31.0887   34.6166  105.3075 C   0  0  0  0  0  0  0  0  0  0  0  0
   23.8224   35.2946  101.4840 O   0  0  0  0  0  0  0  0  0  0  0  0
   26.0418   34.5650  105.6938 C   0  0  0  0  0  0  0  0  0  0  0  0
   31.5031   33.6901  101.8562 C   0  0  0  0  0  0  0  0  0  0  0  0
   24.1574   34.1623  107.2673 C   0  0  0  0  0  0  0  0  0  0  0  0
   32.6769   33.7279  103.9580 N   0  0  0  0  0  0  0  0  0  0  0  0
   25.4550   36.7393  100.8809 N   0  0  0  0  0  0  0  0  0  0  0  0
  1  7  1  0
  1 19  1  0
  1 21  1  0
  2 11  2  0
  3 10  1  0
  3 15  1  0
  3 18  1  0
  4 24  2  0
  5 16  1  0
  5 19  1  0
  6 24  1  0
  7 10  2  0
  7 26  1  0
  8 18  1  0
  9 20  1  0
  9 25  1  0
 11 12  1  0
 11 18  1  0
 12 17  1  0
 12 20  1  0
 13 14  2  0
 14 21  1  0
 14 26  1  0
 15 19  2  0
 15 22  1  0
 16 22  1  0
 16 24  1  0
 17 23  1  0
 17 25  2  0
M  END
$$$$
