
     RDKit          3D

 28 29  0  0  0  0  0  0  0  0999 V2000
   27.6014   34.3662  104.7721 C   0  0  0  0  0  0  0  0  0  0  0  0
   24.3105   33.9100  104.8066 C   0  0  0  0  0  0  0  0  0  0  0  0
   20.2850   34.2017  107.0954 O   0  0  0  0  0  0  0  0  0  0  0  0
   24.9891   35.8634   99.0984 C   0  0  0  0  0  0  0  0  0  0  0  0
   22.6150   34.0069  106.2911 C   0  0  0  0  0  0  0  0  0  0  0  0
   23.9389   34.2450  106.0522 N   0  0  0  0  0  0  0  0  0  0  0  0
   31.6441   32.5062  103.0594 C   0  0  0  0  0  0  0  0  0  0  0  0
   21.6348   34.8000  107.1684 C   0  0  0  0  0  0  0  0  0  0  0  0
   28.0159   34.4619   97.5268 O   0  0  0  0  0  0  0  0  0  0  0  0
   28.9215   34.6664  104.0338 C   0  0  0  0  0  0  0  0  0  0  0  0
   29.4360   35.9656  103.8279 C   0  0  0  0  0  0  0  0  0  0  0  0
   23.9537   36.8235   99.8716 C   0  0  0  0  0  0  0  0  0  0  0  0
   28.7368   37.0467  103.9090 O   0  0  0  0  0  0  0  0  0  0  0  0
   25.2696   34.6558  104.0030 C   0  0  0  0  0  0  0  0  0  0  0  0
   24.8533   34.5219  107.2178 C   0  0  0  0  0  0  0  0  0  0  0  0
   25.9110   35.5831   97.8810 C   0  0  0  0  0  0  0  0  0  0  0  0
   25.2303   34.5646  102.5461 C   0  0  0  0  0  0  0  0  0  0  0  0
   30.9429   33.7330  103.3941 C   0  0  0  0  0  0  0  0  0  0  0  0
   29.6334   33.5907  103.6744 C   0  0  0  0  0  0  0  0  0  0  0  0
   31.4966   34.9539  103.3048 N   0  0  0  0  0  0  0  0  0  0  0  0
   25.5391   35.0067  100.1787 O   0  0  0  0  0  0  0  0  0  0  0  0
   26.1518   36.6235  101.7639 O   0  0  0  0  0  0  0  0  0  0  0  0
   27.0444   34.6730   98.4469 C   0  0  0  0  0  0  0  0  0  0  0  0
   26.4334   35.3269  104.6130 C   0  0  0  0  0  0  0  0  0  0  0  0
   22.2617   33.0767  105.3629 C   0  0  0  0  0  0  0  0  0  0  0  0
   23.3647   33.0218  104.3807 C   0  0  0  0  0  0  0  0  0  0  0  0
   30.7914   35.9830  103.5161 N   0  0  0  0  0  0  0  0  0  0  0  0
   25.5636   35.5368  101.5027 C   0  0  0  0  0  0  0  0  0  0  0  0
  1 10  1  0
  1 24  1  0
  2  6  1  0
  2 14  1  0
  2 26  1  0
  3  8  1  0
  4 12  1  0
  4 16  1  0
  4 21  1  0
  5  6  1  0
  5  8  1  0
  5 25  1  0
  6 15  1  0
  7 18  1  0
  9 23  1  0
 10 11  1  0
 10 19  1  0
 11 13  2  0
 11 27  1  0
 14 17  1  0
 14 24  1  0
 16 23  1  0
 17 28  1  0
 18 19  2  0
 18 20  1  0
 20 27  2  0
 21 28  1  0
 22 28  2  0
 25 26  1  0
M  END
$$$$
