
     RDKit          3D

 31 34  0  0  0  0  0  0  0  0999 V2000
   25.4260   35.3569  103.3529 C   0  0  0  0  0  0  0  0  0  0  0  0
   27.1369   36.6969  105.3124 O   0  0  0  0  0  0  0  0  0  0  0  0
   29.6911   33.3232  102.9218 C   0  0  0  0  0  0  0  0  0  0  0  0
   28.6124   34.0202  103.4154 C   0  0  0  0  0  0  0  0  0  0  0  0
   31.0764   33.5358  103.0254 C   0  0  0  0  0  0  0  0  0  0  0  0
   29.6285   37.4184  103.9746 O   0  0  0  0  0  0  0  0  0  0  0  0
   27.2860   33.6506  103.4760 N   0  0  0  0  0  0  0  0  0  0  0  0
   22.9921   33.6477  105.5360 C   0  0  0  0  0  0  0  0  0  0  0  0
   31.9134   32.8843  102.3231 O   0  0  0  0  0  0  0  0  0  0  0  0
   23.0759   34.1535  106.9404 C   0  0  0  0  0  0  0  0  0  0  0  0
   25.5940   34.2065  105.2982 C   0  0  0  0  0  0  0  0  0  0  0  0
   26.4793   34.7243  104.1170 C   0  0  0  0  0  0  0  0  0  0  0  0
   24.2848   32.8864  103.5470 C   0  0  0  0  0  0  0  0  0  0  0  0
   31.1591   35.7204  103.9602 N   0  0  0  0  0  0  0  0  0  0  0  0
   25.6311   36.0030   99.8440 C   0  0  0  0  0  0  0  0  0  0  0  0
   29.8749   36.1705  103.9244 C   0  0  0  0  0  0  0  0  0  0  0  0
   24.2622   33.7164  104.8673 C   0  0  0  0  0  0  0  0  0  0  0  0
   25.6570   34.2251  106.6834 C   0  0  0  0  0  0  0  0  0  0  0  0
   26.7050   33.5922  107.3291 O   0  0  0  0  0  0  0  0  0  0  0  0
   25.3049   35.7541  102.0086 C   0  0  0  0  0  0  0  0  0  0  0  0
   24.0488   36.1204  101.5286 O   0  0  0  0  0  0  0  0  0  0  0  0
   26.3105   35.7043  101.0268 N   0  0  0  0  0  0  0  0  0  0  0  0
   31.6466   34.5333  103.8634 N   0  0  0  0  0  0  0  0  0  0  0  0
   27.4424   35.7443  104.5305 C   0  0  0  0  0  0  0  0  0  0  0  0
   24.6137   34.4719  108.8157 O   0  0  0  0  0  0  0  0  0  0  0  0
   23.2890   36.5925   99.3055 F   0  0  0  0  0  0  0  0  0  0  0  0
   24.4038   34.0212  107.5420 C   0  0  0  0  0  0  0  0  0  0  0  0
   32.7610   34.0713  104.4917 N   0  0  0  0  0  0  0  0  0  0  0  0
   24.2582   36.2675  100.1679 C   0  0  0  0  0  0  0  0  0  0  0  0
   22.1575   32.3830  105.2280 C   0  0  0  0  0  0  0  0  0  0  0  0
   28.7286   35.3366  103.9857 C   0  0  0  0  0  0  0  0  0  0  0  0
  1 12  1  0
  1 20  2  3
  2 24  2  0
  3  4  2  0
  3  5  1  0
  4  7  1  0
  4 31  1  0
  5  9  2  0
  5 23  1  0
  6 16  2  0
  7 12  1  0
  8 10  1  0
  8 17  1  0
  8 30  1  0
 10 27  1  0
 11 12  1  0
 11 17  1  0
 11 18  1  0
 12 24  1  0
 13 17  1  0
 14 16  1  0
 14 23  1  0
 15 22  1  0
 15 29  1  0
 16 31  1  0
 18 19  1  0
 18 27  1  0
 20 21  1  0
 20 22  1  0
 21 29  1  0
 23 28  1  0
 24 31  1  0
 25 27  1  0
 26 29  1  0
M  END
$$$$
