
     RDKit          3D

 23 23  0  0  0  0  0  0  0  0999 V2000
   23.7929   35.9223   99.9109 F   0  0  0  0  0  0  0  0  0  0  0  0
   24.6305   36.2847  100.8797 C   0  0  0  0  0  0  0  0  0  0  0  0
   31.0594   34.5760  103.6067 C   0  0  0  0  0  0  0  0  0  0  0  0
   23.9356   33.9590  107.1555 O   0  0  0  0  0  0  0  0  0  0  0  0
   29.1818   36.1167  103.6083 C   0  0  0  0  0  0  0  0  0  0  0  0
   23.1085   33.4128  105.8392 C   0  0  0  0  0  0  0  0  0  0  0  0
   30.5214   32.5345  102.5199 O   0  0  0  0  0  0  0  0  0  0  0  0
   31.3238   33.5363  102.6047 C   0  0  0  0  0  0  0  0  0  0  0  0
   25.0597   37.5349  100.9540 F   0  0  0  0  0  0  0  0  0  0  0  0
   27.0110   35.1359  103.7250 C   0  0  0  0  0  0  0  0  0  0  0  0
   29.9505   37.1532  103.6291 F   0  0  0  0  0  0  0  0  0  0  0  0
   25.1823   35.3207  101.8674 C   0  0  0  0  0  0  0  0  0  0  0  0
   25.1779   35.5209  105.9007 O   0  0  0  0  0  0  0  0  0  0  0  0
   24.7341   33.9428  104.0267 C   0  0  0  0  0  0  0  0  0  0  0  0
   32.3868   34.1065  105.4198 C   0  0  0  0  0  0  0  0  0  0  0  0
   27.8350   36.2448  103.3585 C   0  0  0  0  0  0  0  0  0  0  0  0
   25.5737   35.1250  103.2987 C   0  0  0  0  0  0  0  0  0  0  0  0
   29.6886   34.8341  103.9442 C   0  0  0  0  0  0  0  0  0  0  0  0
   27.5584   34.1049  104.4439 C   0  0  0  0  0  0  0  0  0  0  0  0
   31.9333   35.0438  104.5375 N   0  0  0  0  0  0  0  0  0  0  0  0
   24.3748   34.3118  105.6412 C   0  0  0  0  0  0  0  0  0  0  0  0
   28.8800   33.9697  104.6034 C   0  0  0  0  0  0  0  0  0  0  0  0
   32.3611   33.7637  101.8590 O   0  0  0  0  0  0  0  0  0  0  0  0
  1  2  1  0
  2  9  1  0
  2 12  1  0
  3  8  1  0
  3 18  1  0
  3 20  1  0
  4 21  1  0
  5 11  1  0
  5 16  2  0
  5 18  1  0
  6 21  1  0
  7  8  2  0
  8 23  1  0
 10 16  1  0
 10 17  1  0
 10 19  1  0
 12 17  1  0
 13 21  1  0
 14 17  1  0
 14 21  1  0
 15 20  1  0
 18 22  1  0
 19 22  2  0
M  END
$$$$
