
     RDKit          3D

 31 32  0  0  0  0  0  0  0  0999 V2000
   31.3361   33.7288  102.9629 C   0  0  0  0  0  0  0  0  0  0  0  0
   26.9548   34.3723  105.0332 C   0  0  0  0  0  0  0  0  0  0  0  0
   24.5087   33.9021  103.8246 C   0  0  0  0  0  0  0  0  0  0  0  0
   23.4054   36.2661   99.0163 N   0  0  0  0  0  0  0  0  0  0  0  0
   25.1449   37.0367  100.5059 C   0  0  0  0  0  0  0  0  0  0  0  0
   23.3788   32.7247  105.4049 N   0  0  0  0  0  0  0  0  0  0  0  0
   22.6277   33.6467  107.6019 C   0  0  0  0  0  0  0  0  0  0  0  0
   26.1014   36.3476  101.4063 C   0  0  0  0  0  0  0  0  0  0  0  0
   27.7299   35.4504  103.4130 N   0  0  0  0  0  0  0  0  0  0  0  0
   24.0965   34.0591  107.6240 C   0  0  0  0  0  0  0  0  0  0  0  0
   24.5378   33.5550  105.2041 C   0  0  0  0  0  0  0  0  0  0  0  0
   32.2231   33.8387  102.0415 O   0  0  0  0  0  0  0  0  0  0  0  0
   25.4224   34.6858  103.0473 C   0  0  0  0  0  0  0  0  0  0  0  0
   30.1237   32.8761  102.7310 C   0  0  0  0  0  0  0  0  0  0  0  0
   21.0773   32.6927  106.2326 N   0  0  0  0  0  0  0  0  0  0  0  0
   30.2163   36.8764  103.6189 O   0  0  0  0  0  0  0  0  0  0  0  0
   33.2028   33.7981  104.9046 O   0  0  0  0  0  0  0  0  0  0  0  0
   26.6135   34.8460  103.8073 C   0  0  0  0  0  0  0  0  0  0  0  0
   25.1521   35.2875  101.7849 C   0  0  0  0  0  0  0  0  0  0  0  0
   26.3774   33.5184  107.3686 O   0  0  0  0  0  0  0  0  0  0  0  0
   28.2243   34.5898  105.4273 C   0  0  0  0  0  0  0  0  0  0  0  0
   30.0926   35.7154  104.0539 C   0  0  0  0  0  0  0  0  0  0  0  0
   25.1153   33.7915  106.6269 C   0  0  0  0  0  0  0  0  0  0  0  0
   31.1751   34.7374  104.0291 C   0  0  0  0  0  0  0  0  0  0  0  0
   31.8449   34.2533  105.2991 C   0  0  0  0  0  0  0  0  0  0  0  0
   24.5189   34.6943  108.7966 O   0  0  0  0  0  0  0  0  0  0  0  0
   20.7713   32.7620  107.6612 C   0  0  0  0  0  0  0  0  0  0  0  0
   22.2777   33.3833  106.0623 C   0  0  0  0  0  0  0  0  0  0  0  0
   24.1264   35.8776  100.2325 C   0  0  0  0  0  0  0  0  0  0  0  0
   28.7134   35.2633  104.3090 C   0  0  0  0  0  0  0  0  0  0  0  0
   20.8249   31.5247  105.4234 C   0  0  0  0  0  0  0  0  0  0  0  0
  1 12  2  0
  1 14  1  0
  1 24  1  0
  2 18  2  0
  2 21  1  0
  3 11  1  0
  3 13  2  3
  4 29  1  0
  5  8  1  0
  5 29  1  0
  6 11  1  0
  6 28  1  0
  7 10  1  0
  7 28  1  0
  8 19  1  0
  9 18  1  0
  9 30  1  0
 10 23  1  0
 10 26  1  0
 11 23  1  0
 13 18  1  0
 13 19  1  0
 15 27  1  0
 15 28  1  0
 15 31  1  0
 16 22  2  0
 17 25  1  0
 20 23  1  0
 21 30  1  0
 22 24  1  0
 22 30  1  0
 24 25  1  0
M  END
$$$$
