
     RDKit          3D

 26 28  0  0  0  0  0  0  0  0999 V2000
   24.0672   33.9551  106.7877 C   0  0  0  0  0  0  0  0  0  0  0  0
   27.8298   35.0324  104.2867 C   0  0  0  0  0  0  0  0  0  0  0  0
   23.0886   36.7812   99.4662 O   0  0  0  0  0  0  0  0  0  0  0  0
   25.6452   34.5133  105.1369 C   0  0  0  0  0  0  0  0  0  0  0  0
   31.5940   34.5287  104.0873 C   0  0  0  0  0  0  0  0  0  0  0  0
   25.3893   35.4487  101.5923 C   0  0  0  0  0  0  0  0  0  0  0  0
   26.9947   34.1494  105.0168 O   0  0  0  0  0  0  0  0  0  0  0  0
   26.2323   33.3681  107.6695 O   0  0  0  0  0  0  0  0  0  0  0  0
   26.1930   36.4531  100.9576 C   0  0  0  0  0  0  0  0  0  0  0  0
   25.8221   35.1076  102.8860 C   0  0  0  0  0  0  0  0  0  0  0  0
   24.6501   35.2730  106.0299 C   0  0  0  0  0  0  0  0  0  0  0  0
   30.2116   36.5657  103.8107 O   0  0  0  0  0  0  0  0  0  0  0  0
   25.1374   33.9703  107.8442 C   0  0  0  0  0  0  0  0  0  0  0  0
   29.1291   34.5087  103.9608 N   0  0  0  0  0  0  0  0  0  0  0  0
   25.3193   37.0741  100.0828 N   0  0  0  0  0  0  0  0  0  0  0  0
   30.3080   35.2593  104.2341 C   0  0  0  0  0  0  0  0  0  0  0  0
   32.4918   33.6245  102.0607 O   0  0  0  0  0  0  0  0  0  0  0  0
   27.1326   35.5855  103.1781 C   0  0  0  0  0  0  0  0  0  0  0  0
   24.9112   34.8298  108.7032 O   0  0  0  0  0  0  0  0  0  0  0  0
   24.1061   35.3378  101.0777 C   0  0  0  0  0  0  0  0  0  0  0  0
   32.5356   34.6431  105.0692 O   0  0  0  0  0  0  0  0  0  0  0  0
   31.6316   33.3575  103.1957 C   0  0  0  0  0  0  0  0  0  0  0  0
   30.3704   32.7898  102.6210 C   0  0  0  0  0  0  0  0  0  0  0  0
   29.1185   33.3528  103.1022 C   0  0  0  0  0  0  0  0  0  0  0  0
   24.9190   34.4309  103.8165 C   0  0  0  0  0  0  0  0  0  0  0  0
   24.1911   36.3207  100.0251 N   0  0  0  0  0  0  0  0  0  0  0  0
  1 11  1  0
  1 13  1  0
  2  7  1  0
  2 14  1  0
  2 18  1  0
  3 26  1  0
  4  7  1  0
  4 11  1  0
  4 25  1  0
  5 16  1  0
  5 21  1  0
  5 22  1  0
  6  9  1  0
  6 10  2  3
  6 20  1  0
  8 13  2  0
  9 15  1  0
 10 18  1  0
 10 25  1  0
 12 16  2  0
 13 19  1  0
 14 16  1  0
 14 24  1  0
 15 26  1  0
 17 22  1  0
 20 26  1  0
 22 23  1  0
 23 24  2  0
M  END
$$$$
