
     RDKit          3D

 35 38  0  0  0  0  0  0  0  0999 V2000
   25.4196   36.5091  101.0737 C   0  0  0  0  0  0  0  0  0  0  0  0
   26.5511   36.3009  101.9102 O   0  0  0  0  0  0  0  0  0  0  0  0
   23.8982   33.6812  105.1051 C   0  0  0  0  0  0  0  0  0  0  0  0
   22.8232   32.9709  104.6481 C   0  0  0  0  0  0  0  0  0  0  0  0
   25.0828   34.7675  103.0078 C   0  0  0  0  0  0  0  0  0  0  0  0
   28.3068   35.5666  104.9060 C   0  0  0  0  0  0  0  0  0  0  0  0
   27.6852   34.1921   97.2252 C   0  0  0  0  0  0  0  0  0  0  0  0
   29.5452   36.9716  103.4692 O   0  0  0  0  0  0  0  0  0  0  0  0
   24.8396   34.3050  104.3269 C   0  0  0  0  0  0  0  0  0  0  0  0
   24.1270   33.9199  106.5072 C   0  0  0  0  0  0  0  0  0  0  0  0
   23.1420   33.5776  107.3697 C   0  0  0  0  0  0  0  0  0  0  0  0
   25.9736   34.8116  105.2189 C   0  0  0  0  0  0  0  0  0  0  0  0
   24.2269   35.8903   99.0582 C   0  0  0  0  0  0  0  0  0  0  0  0
   25.4727   34.5854  106.6084 C   0  0  0  0  0  0  0  0  0  0  0  0
   21.8839   32.5537  105.5335 C   0  0  0  0  0  0  0  0  0  0  0  0
   31.3404   34.8033  103.0312 N   0  0  0  0  0  0  0  0  0  0  0  0
   32.0430   33.5874  103.3756 C   0  0  0  0  0  0  0  0  0  0  0  0
   28.9553   35.0106   96.9646 C   0  0  0  0  0  0  0  0  0  0  0  0
   32.2726   33.6038  104.7247 O   0  0  0  0  0  0  0  0  0  0  0  0
   28.9745   36.2788   97.0258 O   0  0  0  0  0  0  0  0  0  0  0  0
   28.4781   34.6874  106.0061 O   0  0  0  0  0  0  0  0  0  0  0  0
   29.3620   35.8367  103.9907 C   0  0  0  0  0  0  0  0  0  0  0  0
   26.2688   35.5473  103.0121 C   0  0  0  0  0  0  0  0  0  0  0  0
   24.5419   37.2751  101.4481 O   0  0  0  0  0  0  0  0  0  0  0  0
   30.0955   34.3290   96.8332 O   0  0  0  0  0  0  0  0  0  0  0  0
   26.6102   35.5601   99.1176 C   0  0  0  0  0  0  0  0  0  0  0  0
   30.5669   35.0443  104.2006 C   0  0  0  0  0  0  0  0  0  0  0  0
   26.9442   35.3871  104.3484 C   0  0  0  0  0  0  0  0  0  0  0  0
   31.4823   32.5453  102.8793 O   0  0  0  0  0  0  0  0  0  0  0  0
   31.1078   34.2326  105.2932 C   0  0  0  0  0  0  0  0  0  0  0  0
   26.0418   34.8625  107.6898 O   0  0  0  0  0  0  0  0  0  0  0  0
   21.9854   32.9028  106.8996 C   0  0  0  0  0  0  0  0  0  0  0  0
   26.4969   35.0357   97.7520 C   0  0  0  0  0  0  0  0  0  0  0  0
   25.3889   35.7857   99.8302 N   0  0  0  0  0  0  0  0  0  0  0  0
   22.9682   35.7753   99.7173 N   0  0  0  0  0  0  0  0  0  0  0  0
  1  2  1  0
  1 24  2  0
  1 34  1  0
  2 23  1  0
  3  4  1  0
  3  9  1  0
  3 10  1  0
  4 15  2  0
  5  9  1  0
  5 23  1  0
  6 21  1  0
  6 22  1  0
  6 28  1  0
  7 18  1  0
  7 33  1  0
  8 22  2  0
  9 12  2  0
 10 11  2  0
 10 14  1  0
 11 32  1  0
 12 14  1  0
 12 28  1  0
 13 34  1  0
 13 35  1  0
 14 31  2  0
 15 32  1  0
 16 17  1  0
 16 27  1  0
 17 19  1  0
 17 29  1  0
 18 20  2  0
 18 25  1  0
 19 30  1  0
 22 27  1  0
 23 28  1  0
 26 33  1  0
 26 34  1  0
 27 30  1  0
M  END
$$$$
