
     RDKit          3D

  9 10  0  0  0  0  0  0  0  0999 V2000
   46.5370   53.0406   -0.3077 C   0  0  0  0  0  0  0  0  0  0  0  0
   45.9898   51.7525   -0.3627 C   0  0  0  0  0  0  0  0  0  0  0  0
   48.0030   51.8239   -1.6061 C   0  0  0  0  0  0  0  0  0  0  0  0
   46.7573   51.0090   -1.3936 C   0  0  0  0  0  0  0  0  0  0  0  0
   46.7814   55.3656    0.1346 C   0  0  0  0  0  0  0  0  0  0  0  0
   46.1289   54.1678    0.3374 C   0  0  0  0  0  0  0  0  0  0  0  0
   47.7608   55.4416   -0.8073 C   0  0  0  0  0  0  0  0  0  0  0  0
   47.6279   53.0890   -1.1365 C   0  0  0  0  0  0  0  0  0  0  0  0
   48.2090   54.2921   -1.4386 C   0  0  0  0  0  0  0  0  0  0  0  0
  1  2  1  0
  1  6  2  0
  1  8  1  0
  2  4  1  0
  3  4  1  0
  3  8  1  0
  5  6  1  0
  5  7  2  0
  7  9  1  0
  8  9  2  0
M  END
$$$$
