
     RDKit          3D

 12 13  0  0  0  0  0  0  0  0999 V2000
   46.3333   53.8010    0.0397 C   0  0  0  0  0  0  0  0  0  0  0  0
   48.2770   53.7981   -1.3093 C   0  0  0  0  0  0  0  0  0  0  0  0
   47.6192   55.8368   -0.0043 C   0  0  0  0  0  0  0  0  0  0  0  0
   47.5910   54.4050   -0.2208 N   0  0  0  0  0  0  0  0  0  0  0  0
   46.3306   52.6156   -0.8688 C   0  0  0  0  0  0  0  0  0  0  0  0
   48.4906   51.9741    0.1105 C   0  0  0  0  0  0  0  0  0  0  0  0
   47.7993   52.3134   -1.2027 C   0  0  0  0  0  0  0  0  0  0  0  0
   47.7162   50.9496   -1.9697 C   0  0  0  0  0  0  0  0  0  0  0  0
   48.6373   48.6484   -1.5734 C   0  0  0  0  0  0  0  0  0  0  0  0
   49.0285   50.5760   -0.0212 C   0  0  0  0  0  0  0  0  0  0  0  0
   48.8220   50.0982   -1.4325 C   0  0  0  0  0  0  0  0  0  0  0  0
   47.5354   48.3823   -2.4053 O   0  0  0  0  0  0  0  0  0  0  0  0
  1  4  1  0
  1  5  1  0
  2  4  1  0
  2  7  1  0
  3  4  1  0
  5  7  1  0
  6  7  1  0
  6 10  1  0
  7  8  1  0
  8 11  1  0
  9 11  1  0
  9 12  1  0
 10 11  1  0
M  END
$$$$
