
     RDKit          3D

 11 11  0  0  0  0  0  0  0  0999 V2000
   12.7615   33.4724   14.4177 C   0  0  0  0  0  0  0  0  0  0  0  0
   12.2960   35.3347   16.4378 C   0  0  0  0  0  0  0  0  0  0  0  0
   13.1544   35.6581   15.3951 C   0  0  0  0  0  0  0  0  0  0  0  0
   15.3319   34.9426   13.1606 O   0  0  0  0  0  0  0  0  0  0  0  0
   13.3466   34.7754   14.3363 C   0  0  0  0  0  0  0  0  0  0  0  0
   13.3958   35.7885   12.1656 O   0  0  0  0  0  0  0  0  0  0  0  0
   11.5820   34.1214   16.4869 C   0  0  0  0  0  0  0  0  0  0  0  0
    9.3559   33.6355   17.1815 O   0  0  0  0  0  0  0  0  0  0  0  0
   11.8918   33.1643   15.4562 C   0  0  0  0  0  0  0  0  0  0  0  0
   10.6432   33.8214   17.5418 C   0  0  0  0  0  0  0  0  0  0  0  0
   14.0916   35.1974   13.1216 C   0  0  0  0  0  0  0  0  0  0  0  0
  1  5  1  0
  1  9  2  0
  2  3  2  0
  2  7  1  0
  3  5  1  0
  4 11  2  0
  5 11  1  0
  6 11  1  0
  7  9  1  0
  7 10  1  0
  8 10  1  0
M  END
$$$$
