
     RDKit          3D

 28 31  0  0  0  0  0  0  0  0999 V2000
   15.7552   34.9326   11.6998 C   0  0  0  0  0  0  0  0  0  0  0  0
   17.7815   33.5280   13.4987 O   0  0  0  0  0  0  0  0  0  0  0  0
   15.7820   34.7998   13.0845 C   0  0  0  0  0  0  0  0  0  0  0  0
   13.4079   35.5634   11.6728 C   0  0  0  0  0  0  0  0  0  0  0  0
   12.0497   37.3571   11.4313 O   0  0  0  0  0  0  0  0  0  0  0  0
   10.3341   32.8239   16.9362 C   0  0  0  0  0  0  0  0  0  0  0  0
   13.6968   34.6951   15.1704 C   0  0  0  0  0  0  0  0  0  0  0  0
   11.4985   35.7159   16.6547 C   0  0  0  0  0  0  0  0  0  0  0  0
   14.8257   36.8925   15.5581 C   0  0  0  0  0  0  0  0  0  0  0  0
   17.9207   35.7135   13.6677 O   0  0  0  0  0  0  0  0  0  0  0  0
   17.1575   34.6456   13.6588 C   0  0  0  0  0  0  0  0  0  0  0  0
   12.8876   29.7245   14.2163 C   0  0  0  0  0  0  0  0  0  0  0  0
   11.0647   30.4126   16.2639 C   0  0  0  0  0  0  0  0  0  0  0  0
   13.4293   35.3511   12.9730 C   0  0  0  0  0  0  0  0  0  0  0  0
   12.6973   31.1149   14.6045 C   0  0  0  0  0  0  0  0  0  0  0  0
    9.9304   34.0283   17.3119 C   0  0  0  0  0  0  0  0  0  0  0  0
   12.1959   36.0184   11.0239 C   0  0  0  0  0  0  0  0  0  0  0  0
   12.5475   33.8688   15.6549 C   0  0  0  0  0  0  0  0  0  0  0  0
   11.3093   29.0371   15.9884 C   0  0  0  0  0  0  0  0  0  0  0  0
   11.9000   31.4699   15.7368 C   0  0  0  0  0  0  0  0  0  0  0  0
   12.4613   36.5603   16.2595 C   0  0  0  0  0  0  0  0  0  0  0  0
   14.5791   35.3016   10.9818 C   0  0  0  0  0  0  0  0  0  0  0  0
   14.4484   34.9127   13.7828 C   0  0  0  0  0  0  0  0  0  0  0  0
   10.7822   34.9592   17.0122 N   0  0  0  0  0  0  0  0  0  0  0  0
   11.8655   28.7759   14.6506 C   0  0  0  0  0  0  0  0  0  0  0  0
   13.6230   36.0103   15.7557 C   0  0  0  0  0  0  0  0  0  0  0  0
   11.7609   34.4224   16.4034 C   0  0  0  0  0  0  0  0  0  0  0  0
   11.5278   32.9296   16.1985 C   0  0  0  0  0  0  0  0  0  0  0  0
  1  3  1  0
  1 22  2  0
  2 11  2  0
  3 11  1  0
  3 23  1  0
  4 14  2  0
  4 17  1  0
  4 22  1  0
  5 17  1  0
  6 16  1  0
  6 28  1  0
  7 18  1  0
  7 23  1  0
  7 26  1  0
  8 21  1  0
  8 24  1  0
  9 26  1  0
 10 11  1  0
 12 15  1  0
 12 25  1  0
 13 19  1  0
 13 20  1  0
 14 23  1  0
 15 20  2  0
 16 24  1  0
 18 27  1  0
 18 28  1  0
 19 25  1  0
 20 28  1  0
 21 26  1  0
 24 27  1  0
M  END
$$$$
