
     RDKit          3D

  9  8  0  0  0  0  0  0  0  0999 V2000
   14.4267   35.6599   11.3202 N   0  0  0  0  0  0  0  0  0  0  0  0
   13.4859   35.8578   13.4840 N   0  0  0  0  0  0  0  0  0  0  0  0
   10.0431   33.6888   17.3985 O   0  0  0  0  0  0  0  0  0  0  0  0
   13.3191   35.3209   12.1198 C   0  0  0  0  0  0  0  0  0  0  0  0
   13.1163   34.9844   14.5091 C   0  0  0  0  0  0  0  0  0  0  0  0
   13.0084   35.3650   15.9224 C   0  0  0  0  0  0  0  0  0  0  0  0
   11.8678   35.0334   16.6452 N   0  0  0  0  0  0  0  0  0  0  0  0
   11.1580   33.8309   16.6628 C   0  0  0  0  0  0  0  0  0  0  0  0
   11.6487   32.6001   15.9359 C   0  0  0  0  0  0  0  0  0  0  0  0
  1  4  1  0
  2  4  1  0
  2  5  1  0
  3  8  2  0
  5  6  1  0
  6  7  1  0
  7  8  1  0
  8  9  1  0
M  END
$$$$
