
     RDKit          3D

 20 22  0  0  0  0  0  0  0  0999 V2000
  -11.9707   -6.4931    5.6078 C   0  0  0  0  0  0  0  0  0  0  0  0
  -23.0377   -6.0547    4.7669 C   0  0  0  0  0  0  0  0  0  0  0  0
  -23.0086   -5.9858    6.1660 N   0  0  0  0  0  0  0  0  0  0  0  0
  -19.2894   -5.6237    4.1259 C   0  0  0  0  0  0  0  0  0  0  0  0
  -23.1949   -4.4383    4.9821 C   0  0  0  0  0  0  0  0  0  0  0  0
  -11.8521   -7.0385    3.4079 C   0  0  0  0  0  0  0  0  0  0  0  0
  -13.1861   -6.8386    3.2115 C   0  0  0  0  0  0  0  0  0  0  0  0
  -15.7063   -7.3285    4.8180 O   0  0  0  0  0  0  0  0  0  0  0  0
  -20.8437   -5.5163    4.4515 N   0  0  0  0  0  0  0  0  0  0  0  0
  -17.7362   -5.0001    4.0392 C   0  0  0  0  0  0  0  0  0  0  0  0
  -22.7143   -4.6743    6.3861 C   0  0  0  0  0  0  0  0  0  0  0  0
  -13.8260   -6.2217    4.2646 C   0  0  0  0  0  0  0  0  0  0  0  0
  -22.2876   -3.7459    4.2474 C   0  0  0  0  0  0  0  0  0  0  0  0
  -15.1367   -6.2885    4.2860 C   0  0  0  0  0  0  0  0  0  0  0  0
  -19.0731   -6.9372    3.9894 N   0  0  0  0  0  0  0  0  0  0  0  0
  -22.0212   -6.4251    4.0579 C   0  0  0  0  0  0  0  0  0  0  0  0
  -11.3440   -6.9617    4.6282 N   0  0  0  0  0  0  0  0  0  0  0  0
  -13.1750   -5.9270    5.3973 C   0  0  0  0  0  0  0  0  0  0  0  0
  -16.0320   -4.9414    4.3290 C   0  0  0  0  0  0  0  0  0  0  0  0
  -21.1950   -4.2094    4.1797 C   0  0  0  0  0  0  0  0  0  0  0  0
  1 17  2  0
  1 18  1  0
  2  3  1  0
  2  5  1  0
  2 16  1  0
  3 11  1  0
  4  9  1  0
  4 10  2  0
  4 15  1  0
  5 11  1  0
  5 13  1  0
  6  7  1  0
  6 17  1  0
  7 12  1  0
  8 14  1  0
  9 16  1  0
  9 20  1  0
 10 19  2  0
 12 14  1  0
 12 18  1  0
 13 20  1  0
 14 19  1  0
M  END
$$$$
