
     RDKit          3D

 19 19  0  0  0  0  0  0  0  0999 V2000
  -23.2883   -7.1305    4.3189 C   0  0  0  0  0  0  0  0  0  0  0  0
  -18.9667   -6.2902    2.6870 C   0  0  0  0  0  0  0  0  0  0  0  0
  -12.0484   -6.5037    5.3050 C   0  0  0  0  0  0  0  0  0  0  0  0
  -17.0623   -5.6680    4.2979 C   0  0  0  0  0  0  0  0  0  0  0  0
  -13.2544   -6.1734    4.4283 C   0  0  0  0  0  0  0  0  0  0  0  0
  -23.1567   -7.3468    3.0144 O   0  0  0  0  0  0  0  0  0  0  0  0
  -21.1758   -6.3476    2.7477 C   0  0  0  0  0  0  0  0  0  0  0  0
  -11.5006   -6.6310    3.2106 C   0  0  0  0  0  0  0  0  0  0  0  0
  -12.7522   -6.2161    3.2306 N   0  0  0  0  0  0  0  0  0  0  0  0
  -14.4509   -5.9609    4.7637 N   0  0  0  0  0  0  0  0  0  0  0  0
  -11.1333   -6.7962    4.4517 N   0  0  0  0  0  0  0  0  0  0  0  0
  -21.5794   -6.0841    3.9003 C   0  0  0  0  0  0  0  0  0  0  0  0
  -18.9688   -6.0463    3.9831 C   0  0  0  0  0  0  0  0  0  0  0  0
  -20.1809   -6.1748    2.0204 C   0  0  0  0  0  0  0  0  0  0  0  0
  -12.1375   -6.8415    6.5123 O   0  0  0  0  0  0  0  0  0  0  0  0
  -22.6870   -5.8111    4.5895 C   0  0  0  0  0  0  0  0  0  0  0  0
  -20.8615   -5.9848    4.4047 C   0  0  0  0  0  0  0  0  0  0  0  0
  -15.4131   -5.7720    4.0232 N   0  0  0  0  0  0  0  0  0  0  0  0
  -23.2020   -8.1018    5.0438 O   0  0  0  0  0  0  0  0  0  0  0  0
  1  6  2  0
  1 16  1  0
  1 19  1  0
  2 13  1  0
  2 14  1  0
  3  5  1  0
  3 11  1  0
  3 15  2  0
  4 13  1  0
  4 18  1  0
  5  9  1  0
  5 10  2  3
  7 12  1  0
  7 14  1  0
  8  9  1  0
  8 11  1  0
 10 18  1  0
 12 16  1  0
 12 17  2  0
M  END
$$$$
