
     RDKit          3D

 28 28  0  0  0  0  0  0  0  0999 V2000
  -11.1106   -6.4124    2.8357 C   0  0  0  0  0  0  0  0  0  0  0  0
  -19.5908   -6.0743    5.9225 C   0  0  0  0  0  0  0  0  0  0  0  0
  -11.6066   -3.5787    0.1078 C   0  0  0  0  0  0  0  0  0  0  0  0
  -22.7309   -4.9338    4.9207 O   0  0  0  0  0  0  0  0  0  0  0  0
  -12.2246   -6.8068    5.8159 O   0  0  0  0  0  0  0  0  0  0  0  0
  -21.1382   -6.4886    4.9885 C   0  0  0  0  0  0  0  0  0  0  0  0
  -11.9012   -3.8808   -1.2586 O   0  0  0  0  0  0  0  0  0  0  0  0
  -11.9742   -1.7858   -2.0120 O   0  0  0  0  0  0  0  0  0  0  0  0
  -20.3190   -4.7273    3.7962 C   0  0  0  0  0  0  0  0  0  0  0  0
  -20.5270   -5.8985    3.5027 C   0  0  0  0  0  0  0  0  0  0  0  0
  -11.7645   -2.9284   -2.3155 C   0  0  0  0  0  0  0  0  0  0  0  0
  -22.0961   -6.9359    5.3787 C   0  0  0  0  0  0  0  0  0  0  0  0
  -11.4942   -3.4538   -3.4695 C   0  0  0  0  0  0  0  0  0  0  0  0
  -10.7094   -7.5049    3.5650 O   0  0  0  0  0  0  0  0  0  0  0  0
  -16.9094   -6.2554    4.1465 C   0  0  0  0  0  0  0  0  0  0  0  0
  -22.5569   -6.1327    4.4207 C   0  0  0  0  0  0  0  0  0  0  0  0
  -12.4811   -5.8196    3.4848 C   0  0  0  0  0  0  0  0  0  0  0  0
  -19.1206   -6.5646    3.1917 C   0  0  0  0  0  0  0  0  0  0  0  0
  -14.8921   -7.2633    5.8427 O   0  0  0  0  0  0  0  0  0  0  0  0
  -21.5102   -8.1087    3.1323 C   0  0  0  0  0  0  0  0  0  0  0  0
  -18.0013   -5.7630    5.3068 C   0  0  0  0  0  0  0  0  0  0  0  0
  -10.7770   -5.6750    1.4115 C   0  0  0  0  0  0  0  0  0  0  0  0
  -21.9748   -6.0204    2.0763 O   0  0  0  0  0  0  0  0  0  0  0  0
  -12.7860   -6.2379    4.8210 C   0  0  0  0  0  0  0  0  0  0  0  0
  -21.7155   -6.5940    3.1749 C   0  0  0  0  0  0  0  0  0  0  0  0
  -14.4620   -6.0418    5.0832 C   0  0  0  0  0  0  0  0  0  0  0  0
  -15.4148   -5.8180    4.0496 C   0  0  0  0  0  0  0  0  0  0  0  0
  -11.7965   -4.5957    1.0688 C   0  0  0  0  0  0  0  0  0  0  0  0
  1 14  1  0
  1 17  1  0
  1 22  1  0
  2  6  1  0
  2 21  1  0
  3  7  1  0
  3 28  1  0
  4 16  1  0
  5 24  2  0
  6 10  1  0
  6 12  1  0
  7 11  1  0
  8 11  2  0
  9 10  1  0
 10 18  1  0
 10 25  1  0
 11 13  1  0
 12 16  1  0
 15 21  2  3
 15 27  1  0
 16 25  1  0
 17 24  1  0
 19 26  1  0
 20 25  1  0
 22 28  1  0
 23 25  1  0
 24 26  1  0
 26 27  1  0
M  END
$$$$
