
     RDKit          3D

 13 12  0  0  0  0  0  0  0  0999 V2000
  -13.6237   -6.2164    4.4485 O   0  0  0  0  0  0  0  0  0  0  0  0
  -20.5250   -4.3737    3.0930 C   0  0  0  0  0  0  0  0  0  0  0  0
  -16.1852   -5.8004    3.9768 C   0  0  0  0  0  0  0  0  0  0  0  0
  -21.5441   -6.5437    2.6637 C   0  0  0  0  0  0  0  0  0  0  0  0
  -20.0667   -5.4336    2.8004 C   0  0  0  0  0  0  0  0  0  0  0  0
  -12.1360   -6.7980    6.1190 O   0  0  0  0  0  0  0  0  0  0  0  0
  -12.4115   -6.3710    4.9266 C   0  0  0  0  0  0  0  0  0  0  0  0
  -14.7239   -5.2372    4.7052 C   0  0  0  0  0  0  0  0  0  0  0  0
  -21.2931   -4.2991    2.9904 C   0  0  0  0  0  0  0  0  0  0  0  0
  -11.3553   -6.8903    3.8963 C   0  0  0  0  0  0  0  0  0  0  0  0
  -18.1131   -5.5419    3.6717 C   0  0  0  0  0  0  0  0  0  0  0  0
  -22.0647   -5.3559    2.7163 C   0  0  0  0  0  0  0  0  0  0  0  0
  -20.3445   -6.7418    2.5895 C   0  0  0  0  0  0  0  0  0  0  0  0
  1  7  1  0
  1  8  1  0
  2  5  1  0
  2  9  2  0
  3  8  1  0
  3 11  1  0
  4 12  2  0
  4 13  1  0
  5 13  1  0
  6  7  2  0
  7 10  1  0
  9 12  1  0
M  END
$$$$
