
     RDKit          3D

 27 29  0  0  0  0  0  0  0  0999 V2000
  -18.4883   -6.1958    3.2644 C   0  0  0  0  0  0  0  0  0  0  0  0
  -20.6769   -5.7375    4.3854 C   0  0  0  0  0  0  0  0  0  0  0  0
  -22.6604   -4.9848    5.4745 C   0  0  0  0  0  0  0  0  0  0  0  0
  -19.8927   -6.0819    3.2443 C   0  0  0  0  0  0  0  0  0  0  0  0
  -16.2269   -6.3848    4.6314 C   0  0  0  0  0  0  0  0  0  0  0  0
  -10.8229   -8.0470    3.1160 C   0  0  0  0  0  0  0  0  0  0  0  0
  -22.4417   -5.2957    3.2427 C   0  0  0  0  0  0  0  0  0  0  0  0
  -10.5453   -6.8226    5.1448 N   0  0  0  0  0  0  0  0  0  0  0  0
  -11.6148   -1.6745   -0.9958 C   0  0  0  0  0  0  0  0  0  0  0  0
  -13.8974   -5.5220    5.9440 N   0  0  0  0  0  0  0  0  0  0  0  0
  -23.7822   -4.7885    3.1755 C   0  0  0  0  0  0  0  0  0  0  0  0
  -12.6983   -7.0550    3.9261 C   0  0  0  0  0  0  0  0  0  0  0  0
  -17.8124   -5.9254    4.4925 C   0  0  0  0  0  0  0  0  0  0  0  0
  -21.9277   -5.5519    4.4551 C   0  0  0  0  0  0  0  0  0  0  0  0
  -12.5343   -5.5849    5.9300 C   0  0  0  0  0  0  0  0  0  0  0  0
  -14.7055   -6.1333    4.8028 C   0  0  0  0  0  0  0  0  0  0  0  0
  -23.9231   -5.4727    5.5715 C   0  0  0  0  0  0  0  0  0  0  0  0
  -18.5145   -5.7509    5.7106 C   0  0  0  0  0  0  0  0  0  0  0  0
  -19.8762   -5.5626    5.5946 C   0  0  0  0  0  0  0  0  0  0  0  0
  -11.7032   -1.5097   -2.4450 O   0  0  0  0  0  0  0  0  0  0  0  0
  -23.6901   -4.2102    5.3677 C   0  0  0  0  0  0  0  0  0  0  0  0
  -10.0064   -7.4469    4.1744 N   0  0  0  0  0  0  0  0  0  0  0  0
  -23.8411   -3.7125    4.0806 C   0  0  0  0  0  0  0  0  0  0  0  0
  -14.0121   -6.8707    3.8941 N   0  0  0  0  0  0  0  0  0  0  0  0
  -12.3238   -2.8847   -0.6484 C   0  0  0  0  0  0  0  0  0  0  0  0
  -12.0029   -7.7528    3.0445 N   0  0  0  0  0  0  0  0  0  0  0  0
  -11.8387   -6.4417    5.0510 C   0  0  0  0  0  0  0  0  0  0  0  0
  1  4  2  0
  1 13  1  0
  2  4  1  0
  2 14  1  0
  2 19  2  0
  3 14  1  0
  3 21  1  0
  5 13  1  0
  5 16  1  0
  6 22  1  0
  6 26  2  0
  7 11  1  0
  7 14  2  0
  8 22  1  0
  8 27  2  0
  9 20  1  0
  9 25  1  0
 10 15  1  0
 10 16  2  0
 11 23  1  0
 12 24  2  0
 12 26  1  0
 12 27  1  0
 13 18  2  0
 15 27  1  0
 16 24  1  0
 17 21  1  0
 18 19  1  0
 21 23  1  0
M  END
$$$$
