
     RDKit          3D

 10  8  0  0  0  0  0  0  0  0999 V2000
  -20.2078   -4.5324    3.2712 O   0  0  0  0  0  0  0  0  0  0  0  0
  -12.6257   -6.5789    4.9880 C   0  0  0  0  0  0  0  0  0  0  0  0
  -12.4538   -7.0311    3.8276 O   0  0  0  0  0  0  0  0  0  0  0  0
  -20.3604   -6.7524    2.7162 C   0  0  0  0  0  0  0  0  0  0  0  0
  -15.2548   -6.1538    4.1266 C   0  0  0  0  0  0  0  0  0  0  0  0
  -16.6973   -6.0569    4.0298 C   0  0  0  0  0  0  0  0  0  0  0  0
  -20.3771   -5.6019    2.4670 C   0  0  0  0  0  0  0  0  0  0  0  0
  -17.4801   -6.1696    3.0241 O   0  0  0  0  0  0  0  0  0  0  0  0
  -14.1277   -5.8180    5.1173 C   0  0  0  0  0  0  0  0  0  0  0  0
  -12.0394   -6.8606    6.1943 O   0  0  0  0  0  0  0  0  0  0  0  0
  1  7  1  0
  2  3  2  0
  2  9  1  0
  2 10  1  0
  4  7  2  0
  5  6  1  0
  5  9  1  0
  6  8  2  0
M  END
$$$$
