
     RDKit          3D

 12 13  0  0  0  0  0  0  0  0999 V2000
   -9.3822  -64.6272   17.0003 O   0  0  0  0  0  0  0  0  0  0  0  0
   -8.2332  -62.6658   16.4814 C   0  0  0  0  0  0  0  0  0  0  0  0
   -8.0528  -64.1507   17.1476 C   0  0  0  0  0  0  0  0  0  0  0  0
   -7.0265  -65.1098   16.7186 O   0  0  0  0  0  0  0  0  0  0  0  0
   -7.5547  -61.7082   15.5415 C   0  0  0  0  0  0  0  0  0  0  0  0
   -7.5879  -63.8994   18.6535 C   0  0  0  0  0  0  0  0  0  0  0  0
   -7.0719  -62.3504   18.5692 C   0  0  0  0  0  0  0  0  0  0  0  0
   -8.4890  -64.0024   19.6687 O   0  0  0  0  0  0  0  0  0  0  0  0
   -7.8515  -60.4253   17.3608 O   0  0  0  0  0  0  0  0  0  0  0  0
   -6.0051  -62.4487   17.6323 O   0  0  0  0  0  0  0  0  0  0  0  0
   -8.2993  -61.7357   17.7534 C   0  0  0  0  0  0  0  0  0  0  0  0
   -8.0639  -60.4126   15.9210 O   0  0  0  0  0  0  0  0  0  0  0  0
  1  3  1  0
  2  3  1  0
  2  5  1  0
  2 11  1  0
  3  4  1  0
  3  6  1  0
  5 12  1  0
  6  7  1  0
  6  8  1  0
  7 10  1  0
  7 11  1  0
  9 11  1  0
  9 12  1  0
M  END
$$$$
