
     RDKit          3D

  9 10  0  0  0  0  0  0  0  0999 V2000
   -9.2006  -63.6917   18.0488 C   0  0  0  0  0  0  0  0  0  0  0  0
   -7.9506  -61.7281   15.6365 C   0  0  0  0  0  0  0  0  0  0  0  0
   -9.0784  -61.0466   16.6086 C   0  0  0  0  0  0  0  0  0  0  0  0
   -7.9609  -60.6908   17.7246 C   0  0  0  0  0  0  0  0  0  0  0  0
   -7.3985  -65.0757   16.9878 N   0  0  0  0  0  0  0  0  0  0  0  0
   -7.9986  -63.7371   17.1549 C   0  0  0  0  0  0  0  0  0  0  0  0
   -6.8257  -61.5415   16.8897 C   0  0  0  0  0  0  0  0  0  0  0  0
   -8.3089  -63.2202   15.7333 C   0  0  0  0  0  0  0  0  0  0  0  0
   -6.8531  -62.8527   17.7368 C   0  0  0  0  0  0  0  0  0  0  0  0
  1  6  1  0
  2  3  1  0
  2  7  1  0
  2  8  1  0
  3  4  1  0
  4  7  1  0
  5  6  1  0
  6  8  1  0
  6  9  1  0
  7  9  1  0
M  END
$$$$
