
     RDKit          3D

 26 29  0  0  0  0  0  0  0  0999 V2000
   -8.9909  -62.2927   16.4438 N   0  0  0  0  0  0  0  0  0  0  0  0
   -8.8475  -61.8416   15.1669 C   0  0  0  0  0  0  0  0  0  0  0  0
   -5.9614  -60.5065   18.4817 C   0  0  0  0  0  0  0  0  0  0  0  0
   -9.0136  -64.6725   16.2734 O   0  0  0  0  0  0  0  0  0  0  0  0
   -7.0078  -63.3160   20.5061 C   0  0  0  0  0  0  0  0  0  0  0  0
   -9.7061  -63.5200   16.8653 C   0  0  0  0  0  0  0  0  0  0  0  0
   -6.1680  -62.1293   20.4486 C   0  0  0  0  0  0  0  0  0  0  0  0
   -9.6933  -63.4299   19.9844 C   0  0  0  0  0  0  0  0  0  0  0  0
   -7.2457  -60.7749   17.4916 C   0  0  0  0  0  0  0  0  0  0  0  0
   -8.8436  -61.2590   17.5845 C   0  0  0  0  0  0  0  0  0  0  0  0
   -9.4631  -63.7444   18.4508 C   0  0  0  0  0  0  0  0  0  0  0  0
  -11.4663  -62.2191   18.3005 C   0  0  0  0  0  0  0  0  0  0  0  0
   -8.4633  -63.0371   20.8406 C   0  0  0  0  0  0  0  0  0  0  0  0
  -10.8897  -63.5478   17.7402 C   0  0  0  0  0  0  0  0  0  0  0  0
  -10.4173  -61.0561   17.9752 C   0  0  0  0  0  0  0  0  0  0  0  0
   -4.0659  -61.6633   19.2612 C   0  0  0  0  0  0  0  0  0  0  0  0
   -3.5612  -60.7670   18.2527 C   0  0  0  0  0  0  0  0  0  0  0  0
  -10.1560  -64.7011   20.5828 O   0  0  0  0  0  0  0  0  0  0  0  0
   -6.9561  -63.1020   14.9405 O   0  0  0  0  0  0  0  0  0  0  0  0
   -7.3360  -59.5809   16.8006 O   0  0  0  0  0  0  0  0  0  0  0  0
   -4.7325  -60.0308   17.7050 C   0  0  0  0  0  0  0  0  0  0  0  0
  -11.6626  -64.6920   17.8376 O   0  0  0  0  0  0  0  0  0  0  0  0
   -6.7683  -61.9912   16.8453 O   0  0  0  0  0  0  0  0  0  0  0  0
   -5.5181  -61.6721   19.2125 C   0  0  0  0  0  0  0  0  0  0  0  0
   -7.6922  -62.4323   15.8338 C   0  0  0  0  0  0  0  0  0  0  0  0
   -6.6487  -64.2984   19.6807 O   0  0  0  0  0  0  0  0  0  0  0  0
  1  2  1  0
  1  6  1  0
  1 10  1  0
  2 25  1  0
  3  9  1  0
  3 21  1  0
  3 24  1  0
  4  6  2  0
  5  7  1  0
  5 13  1  0
  5 26  1  0
  6 14  1  0
  7 24  1  0
  8 11  1  0
  8 13  1  0
  8 18  1  0
  9 10  1  0
  9 20  1  0
  9 23  1  0
 10 15  1  0
 11 14  1  0
 12 14  1  0
 12 15  1  0
 14 22  1  0
 16 17  1  0
 16 24  1  0
 17 21  1  0
 19 25  2  0
 23 25  1  0
M  END
$$$$
