
     RDKit          3D

  6  5  0  0  0  0  0  0  0  0999 V2000
   -7.9158  -65.0417   16.7298 O   0  0  0  0  0  0  0  0  0  0  0  0
   -7.8790  -63.6788   17.1680 C   0  0  0  0  0  0  0  0  0  0  0  0
   -7.8473  -63.5505   18.6174 O   0  0  0  0  0  0  0  0  0  0  0  0
   -6.0824  -61.6840   17.3549 C   0  0  0  0  0  0  0  0  0  0  0  0
   -9.0831  -62.8392   16.4797 C   0  0  0  0  0  0  0  0  0  0  0  0
   -6.5312  -62.9622   16.5412 C   0  0  0  0  0  0  0  0  0  0  0  0
  1  2  1  0
  2  3  1  0
  2  5  1  0
  2  6  1  0
  4  6  1  0
M  END
$$$$
