
     RDKit          3D

  6  5  0  0  0  0  0  0  0  0999 V2000
    1.0062   32.7966   -9.9375 O   0  0  0  0  0  0  0  0  0  0  0  0
    1.6894   31.1473  -11.2110 N   0  0  0  0  0  0  0  0  0  0  0  0
    0.9695   32.3274  -10.9955 C   0  0  0  0  0  0  0  0  0  0  0  0
    0.7667   33.1513  -12.1612 C   0  0  0  0  0  0  0  0  0  0  0  0
    0.9245   34.4992  -11.8584 O   0  0  0  0  0  0  0  0  0  0  0  0
    1.8242   30.5584  -12.4764 N   0  0  0  0  0  0  0  0  0  0  0  0
  1  3  2  0
  2  3  1  0
  2  6  1  0
  3  4  1  0
  4  5  1  0
M  END
$$$$
