
     RDKit          3D

  6  5  0  0  0  0  0  0  0  0999 V2000
    0.6173   33.9243  -10.8707 C   0  0  0  0  0  0  0  0  0  0  0  0
    1.7559   29.7143  -12.3091 O   0  0  0  0  0  0  0  0  0  0  0  0
    0.5772   31.5022  -11.0882 C   0  0  0  0  0  0  0  0  0  0  0  0
    0.1701   33.9774  -12.0780 C   0  0  0  0  0  0  0  0  0  0  0  0
    1.5888   31.1588  -12.1961 C   0  0  0  0  0  0  0  0  0  0  0  0
    1.0299   32.6432  -10.3729 O   0  0  0  0  0  0  0  0  0  0  0  0
  1  4  2  0
  1  6  1  0
  2  5  1  0
  3  5  1  0
  3  6  1  0
M  END
$$$$
