
     RDKit          3D

 11 13  0  0  0  0  0  0  0  0999 V2000
   49.1936   54.0154   -0.5135 C   0  0  0  0  0  0  0  0  0  0  0  0
   47.6607   51.8643   -0.7127 C   0  0  0  0  0  0  0  0  0  0  0  0
   48.4039   52.0458    0.6445 C   0  0  0  0  0  0  0  0  0  0  0  0
   48.0704   54.0178   -1.6617 C   0  0  0  0  0  0  0  0  0  0  0  0
   48.4695   53.5671    0.8594 C   0  0  0  0  0  0  0  0  0  0  0  0
   48.7050   51.6617   -1.7049 O   0  0  0  0  0  0  0  0  0  0  0  0
   47.0007   54.0094    0.4814 C   0  0  0  0  0  0  0  0  0  0  0  0
   45.7559   53.2080   -1.4532 O   0  0  0  0  0  0  0  0  0  0  0  0
   47.2738   55.4679    0.0400 C   0  0  0  0  0  0  0  0  0  0  0  0
   47.4539   55.4092   -1.4925 C   0  0  0  0  0  0  0  0  0  0  0  0
   46.9506   53.1768   -0.8583 C   0  0  0  0  0  0  0  0  0  0  0  0
  1  4  1  0
  1  5  1  0
  2  3  1  0
  2  6  1  0
  2 11  1  0
  3  5  1  0
  4 10  1  0
  4 11  1  0
  5  7  1  0
  7  9  1  0
  7 11  1  0
  8 11  1  0
  9 10  1  0
M  END
$$$$
