
     RDKit          3D

  9  9  0  0  0  0  0  0  0  0999 V2000
   47.3359   52.4976    0.2737 C   0  0  0  0  0  0  0  0  0  0  0  0
   47.6607   55.3209   -0.6449 C   0  0  0  0  0  0  0  0  0  0  0  0
   47.3262   54.6863   -1.7949 N   0  0  0  0  0  0  0  0  0  0  0  0
   48.5469   53.2665    0.4362 C   0  0  0  0  0  0  0  0  0  0  0  0
   46.8797   53.4588   -1.8754 C   0  0  0  0  0  0  0  0  0  0  0  0
   47.1714   51.4595    1.0418 O   0  0  0  0  0  0  0  0  0  0  0  0
   48.4063   54.7072    0.4107 C   0  0  0  0  0  0  0  0  0  0  0  0
   46.6485   52.6266   -0.8633 N   0  0  0  0  0  0  0  0  0  0  0  0
   47.5076   56.6022   -0.5605 N   0  0  0  0  0  0  0  0  0  0  0  0
  1  4  1  0
  1  6  2  0
  1  8  1  0
  2  3  1  0
  2  7  1  0
  2  9  2  0
  3  5  2  0
  4  7  1  0
  5  8  1  0
M  END
$$$$
