
     RDKit          3D

  8  8  0  0  0  0  0  0  0  0999 V2000
   47.9206   53.9956   -2.1062 C   0  0  0  0  0  0  0  0  0  0  0  0
   46.5895   54.6799    0.5483 C   0  0  0  0  0  0  0  0  0  0  0  0
   47.5202   55.4515   -1.6540 C   0  0  0  0  0  0  0  0  0  0  0  0
   47.9711   53.0428   -0.8788 C   0  0  0  0  0  0  0  0  0  0  0  0
   46.9790   53.2280    0.2498 C   0  0  0  0  0  0  0  0  0  0  0  0
   45.9229   52.3817    0.3442 O   0  0  0  0  0  0  0  0  0  0  0  0
   48.1052   51.7230   -1.3195 O   0  0  0  0  0  0  0  0  0  0  0  0
   47.6865   55.6065   -0.0967 C   0  0  0  0  0  0  0  0  0  0  0  0
  1  3  1  0
  1  4  1  0
  2  5  1  0
  2  8  1  0
  3  8  1  0
  4  5  1  0
  4  7  1  0
  5  6  1  0
M  END
$$$$
