
     RDKit          3D

  9 10  0  0  0  0  0  0  0  0999 V2000
   46.9143   50.8666   -1.3797 C   0  0  0  0  0  0  0  0  0  0  0  0
   47.7238   54.4471   -1.6922 C   0  0  0  0  0  0  0  0  0  0  0  0
   45.9834   52.1462    0.3129 C   0  0  0  0  0  0  0  0  0  0  0  0
   46.1314   50.9807   -0.2787 N   0  0  0  0  0  0  0  0  0  0  0  0
   47.3522   53.1646   -1.3165 N   0  0  0  0  0  0  0  0  0  0  0  0
   46.5985   53.2585   -0.1628 C   0  0  0  0  0  0  0  0  0  0  0  0
   46.5858   54.5664    0.2325 N   0  0  0  0  0  0  0  0  0  0  0  0
   47.2835   55.2780   -0.7157 C   0  0  0  0  0  0  0  0  0  0  0  0
   47.5521   51.9424   -1.8627 C   0  0  0  0  0  0  0  0  0  0  0  0
  1  4  1  0
  1  9  2  0
  2  5  1  0
  2  8  1  0
  3  4  2  0
  3  6  1  0
  5  6  1  0
  5  9  1  0
  6  7  2  0
  7  8  1  0
M  END
$$$$
