
     RDKit          3D

 12 12  0  0  0  0  0  0  0  0999 V2000
  -13.4693   -6.4251    4.3358 N   0  0  0  0  0  0  0  0  0  0  0  0
  -18.9859   -5.9169    4.6753 N   0  0  0  0  0  0  0  0  0  0  0  0
  -11.0055   -7.0793    4.1530 S   0  0  0  0  0  0  0  0  0  0  0  0
  -16.7967   -4.8302    4.6888 C   0  0  0  0  0  0  0  0  0  0  0  0
  -16.9278   -7.2173    4.8113 N   0  0  0  0  0  0  0  0  0  0  0  0
  -12.2663   -6.3765    4.9912 C   0  0  0  0  0  0  0  0  0  0  0  0
  -15.4083   -4.9659    4.7084 C   0  0  0  0  0  0  0  0  0  0  0  0
  -17.5957   -5.9810    4.7077 C   0  0  0  0  0  0  0  0  0  0  0  0
  -15.5892   -7.3042    4.8414 C   0  0  0  0  0  0  0  0  0  0  0  0
  -12.0358   -5.6706    5.9265 O   0  0  0  0  0  0  0  0  0  0  0  0
  -14.8057   -6.2088    4.6714 C   0  0  0  0  0  0  0  0  0  0  0  0
  -19.6258   -7.2103    4.3930 C   0  0  0  0  0  0  0  0  0  0  0  0
  1  6  1  0
  1 11  1  0
  2  8  1  0
  2 12  1  0
  3  6  1  0
  4  7  2  0
  4  8  1  0
  5  8  2  0
  5  9  1  0
  6 10  2  0
  7 11  1  0
  9 11  2  0
M  END
$$$$
