
     RDKit          3D

 21 24  0  0  0  0  0  0  0  0999 V2000
  -17.0894   -5.9827    5.4502 C   0  0  0  0  0  0  0  0  0  0  0  0
  -21.1289   -6.7151    5.4474 N   0  0  0  0  0  0  0  0  0  0  0  0
  -19.2944   -7.2656    4.2075 C   0  0  0  0  0  0  0  0  0  0  0  0
  -18.0856   -7.1191    3.5757 C   0  0  0  0  0  0  0  0  0  0  0  0
  -16.9867   -6.5483    4.2206 C   0  0  0  0  0  0  0  0  0  0  0  0
  -21.7294   -6.0039    6.4721 C   0  0  0  0  0  0  0  0  0  0  0  0
  -20.4056   -8.1776    3.6687 C   0  0  0  0  0  0  0  0  0  0  0  0
  -15.7948   -6.5623    3.6078 N   0  0  0  0  0  0  0  0  0  0  0  0
  -11.9109   -6.5375    4.7027 C   0  0  0  0  0  0  0  0  0  0  0  0
  -12.8398   -6.1165    5.6590 C   0  0  0  0  0  0  0  0  0  0  0  0
  -14.5422   -6.4015    3.9672 C   0  0  0  0  0  0  0  0  0  0  0  0
  -21.2926   -9.2522    1.6012 C   0  0  0  0  0  0  0  0  0  0  0  0
  -13.5788   -6.6782    3.0136 C   0  0  0  0  0  0  0  0  0  0  0  0
  -19.5931   -6.5897    5.3108 C   0  0  0  0  0  0  0  0  0  0  0  0
  -18.4560   -5.9142    6.0391 C   0  0  0  0  0  0  0  0  0  0  0  0
  -10.6023   -6.8289    5.0416 O   0  0  0  0  0  0  0  0  0  0  0  0
  -20.3357   -8.3280    2.1669 C   0  0  0  0  0  0  0  0  0  0  0  0
  -12.2771   -6.7186    3.3726 C   0  0  0  0  0  0  0  0  0  0  0  0
  -14.2869   -5.9967    5.2958 C   0  0  0  0  0  0  0  0  0  0  0  0
  -15.6795   -5.6406    5.9493 C   0  0  0  0  0  0  0  0  0  0  0  0
  -21.7268   -7.5308    4.2639 C   0  0  0  0  0  0  0  0  0  0  0  0
  1  5  2  0
  1 15  1  0
  1 20  1  0
  2  6  1  0
  2 14  1  0
  2 21  1  0
  3  4  1  0
  3  7  1  0
  3 14  2  0
  4  5  1  0
  5  8  1  0
  7 17  1  0
  7 21  1  0
  8 11  2  0
  9 10  2  0
  9 16  1  0
  9 18  1  0
 10 19  1  0
 11 13  1  0
 11 19  1  0
 12 17  1  0
 13 18  2  0
 14 15  1  0
 19 20  2  0
M  END
$$$$
