
     RDKit          3D

 44 45  0  0  0  0  0  0  0  0999 V2000
  -22.2512   -6.2722    4.3605 C   0  0  0  0  0  0  0  0  0  0  0  0
  -23.0481   -5.5086    1.1642 C   0  0  0  0  0  0  0  0  0  0  0  0
  -18.4305   -5.3820    5.2880 C   0  0  0  0  0  0  0  0  0  0  0  0
  -19.2846   -1.4767    3.2427 F   0  0  0  0  0  0  0  0  0  0  0  0
  -22.9279   -6.7925    1.9913 C   0  0  0  0  0  0  0  0  0  0  0  0
  -22.5924   -7.7115    4.2804 C   0  0  0  0  0  0  0  0  0  0  0  0
  -23.3947   -8.9649    6.1508 C   0  0  0  0  0  0  0  0  0  0  0  0
  -19.6522   -6.1910    5.0708 C   0  0  0  0  0  0  0  0  0  0  0  0
  -12.5586   -6.8322    3.8634 N   0  0  0  0  0  0  0  0  0  0  0  0
  -20.7800   -3.0228    1.4318 F   0  0  0  0  0  0  0  0  0  0  0  0
  -12.7449   -6.0463    5.8657 N   0  0  0  0  0  0  0  0  0  0  0  0
  -21.4414   -8.6128    4.0275 C   0  0  0  0  0  0  0  0  0  0  0  0
  -21.7101   -2.9674    3.7320 C   0  0  0  0  0  0  0  0  0  0  0  0
  -11.7202   -0.9803   -0.4440 O   0  0  0  0  0  0  0  0  0  0  0  0
  -21.0931   -5.8834    5.2659 C   0  0  0  0  0  0  0  0  0  0  0  0
  -21.7281   -3.2373    2.2531 C   0  0  0  0  0  0  0  0  0  0  0  0
  -22.6357   -4.2946    1.8505 O   0  0  0  0  0  0  0  0  0  0  0  0
  -24.2413   -7.0853    2.4603 O   0  0  0  0  0  0  0  0  0  0  0  0
  -10.2100   -7.9384    2.5945 O   0  0  0  0  0  0  0  0  0  0  0  0
  -11.3028   -6.8014    4.3825 C   0  0  0  0  0  0  0  0  0  0  0  0
  -21.2943   -6.9892    2.2199 C   0  0  0  0  0  0  0  0  0  0  0  0
  -11.4049   -0.4800   -3.8411 C   0  0  0  0  0  0  0  0  0  0  0  0
  -24.3249   -6.8399    5.6762 O   0  0  0  0  0  0  0  0  0  0  0  0
  -20.3401   -7.7540    3.2733 C   0  0  0  0  0  0  0  0  0  0  0  0
  -19.1784   -2.7853    3.7152 C   0  0  0  0  0  0  0  0  0  0  0  0
  -14.9520   -6.4220    4.5480 N   0  0  0  0  0  0  0  0  0  0  0  0
  -20.4107   -3.2918    4.4203 C   0  0  0  0  0  0  0  0  0  0  0  0
  -19.2833   -7.3647    4.3124 C   0  0  0  0  0  0  0  0  0  0  0  0
  -20.3441   -3.1890    5.8902 C   0  0  0  0  0  0  0  0  0  0  0  0
  -10.6526   -0.6913   -2.5519 C   0  0  0  0  0  0  0  0  0  0  0  0
  -11.5228   -1.5044   -1.6268 C   0  0  0  0  0  0  0  0  0  0  0  0
  -17.3213   -6.2902    4.9583 C   0  0  0  0  0  0  0  0  0  0  0  0
  -15.9764   -6.0276    5.2878 C   0  0  0  0  0  0  0  0  0  0  0  0
  -22.9464   -3.4644    4.3367 C   0  0  0  0  0  0  0  0  0  0  0  0
  -22.1986   -7.7789    1.6790 O   0  0  0  0  0  0  0  0  0  0  0  0
  -13.5181   -6.3961    4.7607 C   0  0  0  0  0  0  0  0  0  0  0  0
  -10.1230   -7.3895    3.6949 C   0  0  0  0  0  0  0  0  0  0  0  0
  -17.8695   -7.3840    4.2402 C   0  0  0  0  0  0  0  0  0  0  0  0
  -23.7888   -7.9739    5.1058 C   0  0  0  0  0  0  0  0  0  0  0  0
  -12.1236   -2.5193   -2.0785 O   0  0  0  0  0  0  0  0  0  0  0  0
  -22.2334   -8.4127    6.8331 C   0  0  0  0  0  0  0  0  0  0  0  0
  -23.4247   -3.1417    5.5591 C   0  0  0  0  0  0  0  0  0  0  0  0
   -8.9827   -7.3362    4.3020 N   0  0  0  0  0  0  0  0  0  0  0  0
  -11.3711   -6.3264    5.6135 N   0  0  0  0  0  0  0  0  0  0  0  0
  1  6  1  0
  1 15  1  0
  2  5  1  0
  2 17  1  0
  3  8  1  0
  3 32  1  0
  4 25  1  0
  5 18  2  0
  5 35  1  0
  6 12  1  0
  6 39  1  0
  7 39  1  0
  7 41  1  0
  8 15  1  0
  8 28  1  0
  9 20  2  0
  9 36  1  0
 10 16  1  0
 11 36  1  0
 11 44  1  0
 12 24  1  0
 13 16  1  0
 13 27  1  0
 13 34  1  0
 14 31  2  0
 16 17  1  0
 19 37  2  0
 20 37  1  0
 20 44  1  0
 21 24  1  0
 21 35  1  0
 22 30  1  0
 23 39  1  0
 24 28  1  0
 25 27  1  0
 26 33  2  3
 26 36  1  0
 27 29  1  0
 28 38  1  0
 30 31  1  0
 31 40  1  0
 32 33  1  0
 32 38  1  0
 34 42  2  0
 37 43  1  0
M  END
$$$$
