
     RDKit          3D

 28 29  0  0  0  0  0  0  0  0999 V2000
  -10.9037   -6.0131    1.8708 C   0  0  0  0  0  0  0  0  0  0  0  0
  -19.0054   -6.2607    5.5086 C   0  0  0  0  0  0  0  0  0  0  0  0
  -12.0029   -2.8538   -0.7037 C   0  0  0  0  0  0  0  0  0  0  0  0
  -22.8790   -5.7835    4.9655 O   0  0  0  0  0  0  0  0  0  0  0  0
  -11.2531   -6.3279    3.3755 C   0  0  0  0  0  0  0  0  0  0  0  0
  -19.8997   -5.8081    6.6130 C   0  0  0  0  0  0  0  0  0  0  0  0
  -12.2588   -3.0244   -2.0253 O   0  0  0  0  0  0  0  0  0  0  0  0
  -11.4531   -1.0342   -2.7546 O   0  0  0  0  0  0  0  0  0  0  0  0
  -19.4310   -4.5961    3.8931 F   0  0  0  0  0  0  0  0  0  0  0  0
  -19.3927   -5.9608    4.0972 C   0  0  0  0  0  0  0  0  0  0  0  0
  -12.0546   -2.0212   -3.0562 C   0  0  0  0  0  0  0  0  0  0  0  0
  -21.1852   -6.6418    6.3819 C   0  0  0  0  0  0  0  0  0  0  0  0
  -12.6504   -2.1616   -4.2286 C   0  0  0  0  0  0  0  0  0  0  0  0
  -10.3231   -6.7649    4.1627 O   0  0  0  0  0  0  0  0  0  0  0  0
  -17.0039   -6.1717    4.2831 C   0  0  0  0  0  0  0  0  0  0  0  0
  -21.7753   -6.4526    4.9470 C   0  0  0  0  0  0  0  0  0  0  0  0
  -12.5839   -6.6577    3.8243 C   0  0  0  0  0  0  0  0  0  0  0  0
  -18.1452   -6.4634    3.4206 N   0  0  0  0  0  0  0  0  0  0  0  0
  -15.0249   -7.3482    5.9992 O   0  0  0  0  0  0  0  0  0  0  0  0
  -20.4817   -7.7240    2.7874 C   0  0  0  0  0  0  0  0  0  0  0  0
  -17.5873   -5.9875    5.6147 C   0  0  0  0  0  0  0  0  0  0  0  0
  -11.8896   -4.8931    1.4416 O   0  0  0  0  0  0  0  0  0  0  0  0
  -21.9852   -6.1248    2.6262 C   0  0  0  0  0  0  0  0  0  0  0  0
  -13.1745   -6.1013    5.0515 C   0  0  0  0  0  0  0  0  0  0  0  0
  -20.9834   -6.5617    3.6251 C   0  0  0  0  0  0  0  0  0  0  0  0
  -14.6547   -6.3683    5.2154 C   0  0  0  0  0  0  0  0  0  0  0  0
  -15.5360   -5.8805    4.1702 C   0  0  0  0  0  0  0  0  0  0  0  0
  -11.8140   -4.2314    0.1423 C   0  0  0  0  0  0  0  0  0  0  0  0
  1  5  1  0
  1 22  1  0
  2  6  1  0
  2 10  1  0
  2 21  1  0
  3  7  1  0
  3 28  1  0
  4 16  1  0
  5 14  1  0
  5 17  1  0
  6 12  1  0
  7 11  1  0
  8 11  2  0
  9 10  1  0
 10 18  1  0
 10 25  1  0
 11 13  1  0
 12 16  1  0
 15 18  1  0
 15 21  1  0
 15 27  1  0
 16 25  1  0
 17 24  1  0
 19 26  1  0
 20 25  1  0
 22 28  1  0
 23 25  1  0
 24 26  1  0
 26 27  1  0
M  END
$$$$
