
     RDKit          3D

 28 30  0  0  0  0  0  0  0  0999 V2000
   27.2795   35.1928  103.5373 C   0  0  0  0  0  0  0  0  0  0  0  0
   28.6867   35.2137  103.8385 C   0  0  0  0  0  0  0  0  0  0  0  0
   29.2717   36.4493  103.8471 C   0  0  0  0  0  0  0  0  0  0  0  0
   30.5678   33.3618  102.3057 O   0  0  0  0  0  0  0  0  0  0  0  0
   30.2601   36.9841  103.5692 O   0  0  0  0  0  0  0  0  0  0  0  0
   24.4855   34.3219  105.6259 N   0  0  0  0  0  0  0  0  0  0  0  0
   22.6860   32.3706  105.8351 O   0  0  0  0  0  0  0  0  0  0  0  0
   26.7537   35.7049  102.3349 C   0  0  0  0  0  0  0  0  0  0  0  0
   26.4646   34.7137  104.4705 C   0  0  0  0  0  0  0  0  0  0  0  0
   23.0386   34.7154  105.5396 C   0  0  0  0  0  0  0  0  0  0  0  0
   32.4508   33.5440  103.7576 N   0  0  0  0  0  0  0  0  0  0  0  0
   31.4122   34.4179  105.4924 C   0  0  0  0  0  0  0  0  0  0  0  0
   23.7433   35.7630  100.4590 F   0  0  0  0  0  0  0  0  0  0  0  0
   30.4774   34.2651  104.5374 C   0  0  0  0  0  0  0  0  0  0  0  0
   22.2780   33.6431  106.4162 C   0  0  0  0  0  0  0  0  0  0  0  0
   24.9195   36.2107  100.7760 C   0  0  0  0  0  0  0  0  0  0  0  0
   24.1635   34.0367  108.2520 C   0  0  0  0  0  0  0  0  0  0  0  0
   24.6024   35.1605  103.0627 C   0  0  0  0  0  0  0  0  0  0  0  0
   31.1122   33.7330  103.4052 C   0  0  0  0  0  0  0  0  0  0  0  0
   25.1323   34.7011  104.3498 C   0  0  0  0  0  0  0  0  0  0  0  0
   25.8448   35.8040   99.7730 F   0  0  0  0  0  0  0  0  0  0  0  0
   25.0406   34.0560  106.9518 C   0  0  0  0  0  0  0  0  0  0  0  0
   24.9871   37.5742  100.8591 F   0  0  0  0  0  0  0  0  0  0  0  0
   26.3339   33.8259  107.3377 O   0  0  0  0  0  0  0  0  0  0  0  0
   29.1102   34.1481  104.7139 C   0  0  0  0  0  0  0  0  0  0  0  0
   32.5949   33.9664  105.0796 C   0  0  0  0  0  0  0  0  0  0  0  0
   25.4135   35.6449  102.0907 C   0  0  0  0  0  0  0  0  0  0  0  0
   22.6673   33.8953  107.9072 C   0  0  0  0  0  0  0  0  0  0  0  0
  1  2  1  0
  1  8  1  0
  1  9  2  0
  2  3  1  0
  2 25  1  0
  3  5  2  0
  4 19  2  0
  6 10  1  0
  6 20  1  0
  6 22  1  0
  7 15  1  0
  8 27  2  0
  9 20  1  0
 10 15  1  0
 11 19  1  0
 11 26  1  0
 12 14  1  0
 12 26  1  0
 13 16  1  0
 14 19  1  0
 14 25  1  0
 15 28  1  0
 16 21  1  0
 16 23  1  0
 16 27  1  0
 17 22  1  0
 17 28  1  0
 18 20  2  0
 18 27  1  0
 22 24  2  0
M  END
$$$$
