
     RDKit          3D

 23 23  0  0  0  0  0  0  0  0999 V2000
   23.8218   35.9195   99.9378 F   0  0  0  0  0  0  0  0  0  0  0  0
   24.6684   36.2969  100.9227 C   0  0  0  0  0  0  0  0  0  0  0  0
   31.0683   34.6573  103.6823 C   0  0  0  0  0  0  0  0  0  0  0  0
   24.0746   34.0210  107.2069 O   0  0  0  0  0  0  0  0  0  0  0  0
   29.1499   36.1169  103.6230 C   0  0  0  0  0  0  0  0  0  0  0  0
   22.9593   33.4223  105.6590 C   0  0  0  0  0  0  0  0  0  0  0  0
   30.5335   32.5840  102.5766 O   0  0  0  0  0  0  0  0  0  0  0  0
   31.3579   33.5622  102.7337 C   0  0  0  0  0  0  0  0  0  0  0  0
   25.1016   37.5293  100.9697 F   0  0  0  0  0  0  0  0  0  0  0  0
   26.9847   35.1066  103.7376 C   0  0  0  0  0  0  0  0  0  0  0  0
   29.9119   37.1458  103.6332 F   0  0  0  0  0  0  0  0  0  0  0  0
   25.1798   35.3103  101.8721 C   0  0  0  0  0  0  0  0  0  0  0  0
   25.2039   35.5087  105.9021 O   0  0  0  0  0  0  0  0  0  0  0  0
   24.7087   33.9096  104.0298 C   0  0  0  0  0  0  0  0  0  0  0  0
   32.4575   34.0019  105.3525 C   0  0  0  0  0  0  0  0  0  0  0  0
   27.7850   36.2368  103.3869 C   0  0  0  0  0  0  0  0  0  0  0  0
   25.5352   35.0928  103.3053 C   0  0  0  0  0  0  0  0  0  0  0  0
   29.7042   34.8402  103.9858 C   0  0  0  0  0  0  0  0  0  0  0  0
   27.5437   34.0700  104.4086 C   0  0  0  0  0  0  0  0  0  0  0  0
   32.0087   35.1017  104.5287 N   0  0  0  0  0  0  0  0  0  0  0  0
   24.3334   34.3027  105.7052 C   0  0  0  0  0  0  0  0  0  0  0  0
   28.8727   33.9426  104.5719 C   0  0  0  0  0  0  0  0  0  0  0  0
   32.3643   33.7925  101.9239 O   0  0  0  0  0  0  0  0  0  0  0  0
  1  2  1  0
  2  9  1  0
  2 12  1  0
  3  8  1  0
  3 18  1  0
  3 20  1  0
  4 21  1  0
  5 11  1  0
  5 16  2  0
  5 18  1  0
  6 21  1  0
  7  8  2  0
  8 23  1  0
 10 16  1  0
 10 17  1  0
 10 19  1  0
 12 17  1  0
 13 21  1  0
 14 17  1  0
 14 21  1  0
 15 20  1  0
 18 22  1  0
 19 22  2  0
M  END
$$$$
