
     RDKit          3D

 28 28  0  0  0  0  0  0  0  0999 V2000
   32.4167   33.4539  102.8196 N   0  0  0  0  0  0  0  0  0  0  0  0
   28.3006   36.1418  102.9536 C   0  0  0  0  0  0  0  0  0  0  0  0
   23.5501   32.6228  106.3195 C   0  0  0  0  0  0  0  0  0  0  0  0
   26.2032   35.3392  102.0511 C   0  0  0  0  0  0  0  0  0  0  0  0
   24.6504   33.9851  107.9955 C   0  0  0  0  0  0  0  0  0  0  0  0
   27.2681   35.1392  103.0026 C   0  0  0  0  0  0  0  0  0  0  0  0
   29.2636   34.0309  104.3653 O   0  0  0  0  0  0  0  0  0  0  0  0
   31.5542   33.9451  104.9310 C   0  0  0  0  0  0  0  0  0  0  0  0
   24.5244   32.9916  104.2487 C   0  0  0  0  0  0  0  0  0  0  0  0
   29.4540   35.0705  105.3992 C   0  0  0  0  0  0  0  0  0  0  0  0
   24.7542   36.5043  100.5782 C   0  0  0  0  0  0  0  0  0  0  0  0
   24.7077   33.0810  105.6290 O   0  0  0  0  0  0  0  0  0  0  0  0
   26.8466   34.1238  103.8426 N   0  0  0  0  0  0  0  0  0  0  0  0
   31.3562   34.1167  103.4603 C   0  0  0  0  0  0  0  0  0  0  0  0
   23.2898   33.7925  107.3314 C   0  0  0  0  0  0  0  0  0  0  0  0
   25.4875   33.8605  103.5380 C   0  0  0  0  0  0  0  0  0  0  0  0
   32.8981   33.9806  105.2135 O   0  0  0  0  0  0  0  0  0  0  0  0
   29.9315   33.8123  103.2339 C   0  0  0  0  0  0  0  0  0  0  0  0
   30.8843   35.2420  105.6355 C   0  0  0  0  0  0  0  0  0  0  0  0
   23.6788   35.9122   99.8465 C   0  0  0  0  0  0  0  0  0  0  0  0
   25.1113   34.6337  102.4561 C   0  0  0  0  0  0  0  0  0  0  0  0
   32.7688   33.8458  101.5306 O   0  0  0  0  0  0  0  0  0  0  0  0
   29.6560   32.9937  102.3071 O   0  0  0  0  0  0  0  0  0  0  0  0
   29.2254   36.8336  103.4732 O   0  0  0  0  0  0  0  0  0  0  0  0
   31.5868   36.3126  105.2883 O   0  0  0  0  0  0  0  0  0  0  0  0
   24.4651   37.3887  101.4296 O   0  0  0  0  0  0  0  0  0  0  0  0
   26.0036   33.7767  107.6609 O   0  0  0  0  0  0  0  0  0  0  0  0
   26.2403   35.9777  100.7578 C   0  0  0  0  0  0  0  0  0  0  0  0
  1 14  1  0
  1 22  1  0
  2  6  1  0
  2 24  2  0
  3 12  1  0
  3 15  1  0
  4  6  1  0
  4 21  1  0
  4 28  1  0
  5 15  1  0
  5 27  1  0
  6 13  1  0
  7 10  1  0
  7 18  1  0
  8 14  1  0
  8 17  1  0
  8 19  1  0
  9 12  1  0
  9 16  1  0
 10 19  1  0
 11 20  1  0
 11 26  2  0
 11 28  1  0
 13 16  1  0
 14 18  1  0
 16 21  1  0
 18 23  2  0
 19 25  1  0
M  END
$$$$
