
     RDKit          3D

 27 29  0  0  0  0  0  0  0  0999 V2000
   26.8115   36.4528  102.2620 C   0  0  0  0  0  0  0  0  0  0  0  0
   30.9617   34.5606  104.0757 C   0  0  0  0  0  0  0  0  0  0  0  0
   26.0738   34.1712  106.5865 C   0  0  0  0  0  0  0  0  0  0  0  0
   30.5860   35.7589  103.4616 C   0  0  0  0  0  0  0  0  0  0  0  0
   23.5028   34.5785  106.5952 C   0  0  0  0  0  0  0  0  0  0  0  0
   30.7206   33.9580  105.3449 C   0  0  0  0  0  0  0  0  0  0  0  0
   23.5927   33.6883  107.8128 C   0  0  0  0  0  0  0  0  0  0  0  0
   30.6389   32.4664  102.9647 C   0  0  0  0  0  0  0  0  0  0  0  0
   26.5924   37.0900  101.1267 C   0  0  0  0  0  0  0  0  0  0  0  0
   25.3844   36.8460  100.4136 C   0  0  0  0  0  0  0  0  0  0  0  0
   26.1188   34.8271  103.9514 C   0  0  0  0  0  0  0  0  0  0  0  0
   32.1055   34.0122  101.8825 C   0  0  0  0  0  0  0  0  0  0  0  0
   24.7830   34.1358  108.6185 C   0  0  0  0  0  0  0  0  0  0  0  0
   24.5121   35.8673  100.8084 C   0  0  0  0  0  0  0  0  0  0  0  0
   31.6701   33.5358  103.1909 C   0  0  0  0  0  0  0  0  0  0  0  0
   25.9012   35.4534  102.6727 C   0  0  0  0  0  0  0  0  0  0  0  0
   24.8666   34.6549  106.0290 C   0  0  0  0  0  0  0  0  0  0  0  0
   29.4194   33.8822  105.0159 C   0  0  0  0  0  0  0  0  0  0  0  0
   27.3852   34.9393  104.5269 N   0  0  0  0  0  0  0  0  0  0  0  0
   28.6541   32.8895  105.7134 C   0  0  0  0  0  0  0  0  0  0  0  0
   24.7701   35.1325  101.9623 C   0  0  0  0  0  0  0  0  0  0  0  0
   28.6908   35.1128  104.6716 C   0  0  0  0  0  0  0  0  0  0  0  0
   32.7744   33.1984  103.9187 O   0  0  0  0  0  0  0  0  0  0  0  0
   23.4661   35.6861  100.0318 O   0  0  0  0  0  0  0  0  0  0  0  0
   29.3954   36.1864  104.1251 C   0  0  0  0  0  0  0  0  0  0  0  0
   24.7831   34.7635  104.5938 C   0  0  0  0  0  0  0  0  0  0  0  0
   26.0697   34.0009  107.9962 C   0  0  0  0  0  0  0  0  0  0  0  0
  1  9  1  0
  1 16  2  0
  2  4  1  0
  2  6  1  0
  2 15  1  0
  3 17  1  0
  3 27  1  0
  4 25  1  0
  5  7  1  0
  5 17  1  0
  6 18  1  0
  7 13  1  0
  8 15  1  0
  9 10  2  0
 10 14  1  0
 11 16  1  0
 11 19  1  0
 11 26  1  0
 12 15  1  0
 13 27  1  0
 14 21  2  0
 14 24  1  0
 15 23  1  0
 16 21  1  0
 17 26  1  0
 18 20  1  0
 18 22  1  0
 19 22  1  0
 22 25  1  0
M  END
$$$$
