
     RDKit          3D

 25 25  0  0  0  0  0  0  0  0999 V2000
   26.5668   35.2422  103.1621 C   0  0  0  0  0  0  0  0  0  0  0  0
   28.9354   35.0406  103.9011 C   0  0  0  0  0  0  0  0  0  0  0  0
   26.3082   36.0109  100.6176 O   0  0  0  0  0  0  0  0  0  0  0  0
   25.9045   34.4948  108.0039 O   0  0  0  0  0  0  0  0  0  0  0  0
   29.0029   36.3857  103.7773 N   0  0  0  0  0  0  0  0  0  0  0  0
   24.5334   37.1412  101.8028 O   0  0  0  0  0  0  0  0  0  0  0  0
   30.4310   34.5678  103.9408 C   0  0  0  0  0  0  0  0  0  0  0  0
   25.2099   35.7529   98.6620 N   0  0  0  0  0  0  0  0  0  0  0  0
   25.7027   34.3562  105.7676 N   0  0  0  0  0  0  0  0  0  0  0  0
   30.0260   32.5203  102.6212 O   0  0  0  0  0  0  0  0  0  0  0  0
   24.9905   36.0551  101.1180 S   0  0  0  0  0  0  0  0  0  0  0  0
   31.9790   33.5644  102.2348 O   0  0  0  0  0  0  0  0  0  0  0  0
   27.0574   34.5596  105.4622 C   0  0  0  0  0  0  0  0  0  0  0  0
   31.1278   35.7711  103.6102 N   0  0  0  0  0  0  0  0  0  0  0  0
   30.8649   33.3962  102.8883 C   0  0  0  0  0  0  0  0  0  0  0  0
   24.8017   33.9730  104.6011 C   0  0  0  0  0  0  0  0  0  0  0  0
   27.5058   34.4761  104.0787 C   0  0  0  0  0  0  0  0  0  0  0  0
   23.2121   36.8306   99.1676 O   0  0  0  0  0  0  0  0  0  0  0  0
   30.2557   36.8503  103.6924 O   0  0  0  0  0  0  0  0  0  0  0  0
   23.9276   35.8304   99.2566 C   0  0  0  0  0  0  0  0  0  0  0  0
   25.2253   34.1314  107.0707 C   0  0  0  0  0  0  0  0  0  0  0  0
   23.9762   35.1137  100.5927 O   0  0  0  0  0  0  0  0  0  0  0  0
   30.8201   34.0152  105.2547 C   0  0  0  0  0  0  0  0  0  0  0  0
   25.0799   34.7510  103.2632 C   0  0  0  0  0  0  0  0  0  0  0  0
   23.8873   33.6616  107.2657 C   0  0  0  0  0  0  0  0  0  0  0  0
  1 17  1  0
  1 24  1  0
  2  5  2  0
  2  7  1  0
  2 17  1  0
  3 11  1  0
  4 21  2  0
  5 19  1  0
  6 11  1  0
  7 14  1  0
  7 15  1  0
  7 23  1  0
  8 20  1  0
  9 13  1  0
  9 16  1  0
  9 21  1  0
 10 15  2  0
 11 22  1  0
 12 15  1  0
 13 17  1  0
 14 19  1  0
 16 24  1  0
 18 20  2  0
 20 22  1  0
 21 25  1  0
M  END
$$$$
