
     RDKit          3D

 36 39  0  0  0  0  0  0  0  0999 V2000
    3.8716  -13.8770   15.3627 O   0  0  0  0  0  0  0  0  0  0  0  0
    4.6030  -12.8199   14.8144 C   0  0  0  0  0  0  0  0  0  0  0  0
    4.5119  -14.1650   12.6712 C   0  0  0  0  0  0  0  0  0  0  0  0
    6.0072  -11.7303   18.8821 C   0  0  0  0  0  0  0  0  0  0  0  0
    4.7684  -11.4238   15.3526 C   0  0  0  0  0  0  0  0  0  0  0  0
    6.1632  -12.3459   21.0159 C   0  0  0  0  0  0  0  0  0  0  0  0
    6.0056  -10.9697   21.0131 C   0  0  0  0  0  0  0  0  0  0  0  0
    5.7421  -13.2975   17.2436 O   0  0  0  0  0  0  0  0  0  0  0  0
    3.9154  -10.4184   14.8165 O   0  0  0  0  0  0  0  0  0  0  0  0
    5.7022  -12.0611   17.5320 C   0  0  0  0  0  0  0  0  0  0  0  0
    5.3014  -11.0045   16.6452 C   0  0  0  0  0  0  0  0  0  0  0  0
    2.5296   -6.6210   17.9134 C   0  0  0  0  0  0  0  0  0  0  0  0
    1.9973   -9.8676   13.0619 C   0  0  0  0  0  0  0  0  0  0  0  0
    6.4656  -13.1766   22.1145 C   0  0  0  0  0  0  0  0  0  0  0  0
    2.7511  -11.2288   11.0943 O   0  0  0  0  0  0  0  0  0  0  0  0
    2.6133   -7.9886   17.6262 C   0  0  0  0  0  0  0  0  0  0  0  0
    1.5790  -10.2069   15.5227 C   0  0  0  0  0  0  0  0  0  0  0  0
    5.3675  -11.9368   12.6001 C   0  0  0  0  0  0  0  0  0  0  0  0
    2.2834   -8.8842   18.6452 C   0  0  0  0  0  0  0  0  0  0  0  0
    0.3907  -11.4146   17.3406 C   0  0  0  0  0  0  0  0  0  0  0  0
    2.8804  -10.9862   12.4524 C   0  0  0  0  0  0  0  0  0  0  0  0
    1.1621  -10.6577   14.1604 C   0  0  0  0  0  0  0  0  0  0  0  0
    2.9402   -9.6999   15.5876 C   0  0  0  0  0  0  0  0  0  0  0  0
    6.1353  -12.8191   19.7524 N   0  0  0  0  0  0  0  0  0  0  0  0
    2.7938  -12.3491   13.1660 C   0  0  0  0  0  0  0  0  0  0  0  0
    3.1332   -8.3952   16.2729 C   0  0  0  0  0  0  0  0  0  0  0  0
    1.3180  -12.1385   13.7794 C   0  0  0  0  0  0  0  0  0  0  0  0
    1.9077   -7.1395   20.2012 C   0  0  0  0  0  0  0  0  0  0  0  0
    5.9199  -10.5557   19.6084 C   0  0  0  0  0  0  0  0  0  0  0  0
    0.6293  -10.1412   16.5959 C   0  0  0  0  0  0  0  0  0  0  0  0
    0.9241  -12.6631   16.6293 C   0  0  0  0  0  0  0  0  0  0  0  0
    2.1596   -6.2090   19.1835 C   0  0  0  0  0  0  0  0  0  0  0  0
    2.8967   -8.7064   13.0857 O   0  0  0  0  0  0  0  0  0  0  0  0
    1.9878   -8.5118   19.9103 C   0  0  0  0  0  0  0  0  0  0  0  0
    0.9381   -9.4902   12.2151 O   0  0  0  0  0  0  0  0  0  0  0  0
    4.3128  -12.8034   13.2922 C   0  0  0  0  0  0  0  0  0  0  0  0
  1  2  1  0
  2  5  1  0
  2 36  1  0
  3 36  1  0
  4 10  1  0
  4 24  1  0
  4 29  1  0
  5  9  1  0
  5 11  1  0
  6  7  1  0
  6 14  1  0
  6 24  1  0
  7 29  1  0
  8 10  2  0
  9 23  1  0
 10 11  1  0
 12 16  1  0
 12 32  2  0
 13 21  1  0
 13 22  1  0
 13 33  1  0
 13 35  1  0
 15 21  1  0
 16 19  1  0
 16 26  1  0
 17 22  1  0
 17 23  1  0
 17 30  1  0
 18 36  1  0
 19 34  2  0
 20 30  1  0
 20 31  1  0
 21 25  1  0
 22 27  1  0
 23 26  1  0
 25 27  1  0
 25 36  1  0
 28 32  1  0
 28 34  1  0
M  END
$$$$
