
     RDKit          3D

 34 37  0  0  0  0  0  0  0  0999 V2000
    5.0700  -12.6771   22.8980 O   0  0  0  0  0  0  0  0  0  0  0  0
    0.9059   -9.9520   14.7133 C   0  0  0  0  0  0  0  0  0  0  0  0
    2.6305   -7.8182   15.5588 C   0  0  0  0  0  0  0  0  0  0  0  0
    4.4494  -13.4595   15.1460 C   0  0  0  0  0  0  0  0  0  0  0  0
    2.7144   -8.4399   20.3768 C   0  0  0  0  0  0  0  0  0  0  0  0
    3.8953   -9.6900   18.1918 C   0  0  0  0  0  0  0  0  0  0  0  0
    5.7561  -12.5410   13.1652 C   0  0  0  0  0  0  0  0  0  0  0  0
    4.7628  -13.8763   17.5356 C   0  0  0  0  0  0  0  0  0  0  0  0
    4.3169  -10.0169   19.4907 C   0  0  0  0  0  0  0  0  0  0  0  0
    4.0360  -13.1646   16.4287 O   0  0  0  0  0  0  0  0  0  0  0  0
    4.4609   -9.7747   21.8782 C   0  0  0  0  0  0  0  0  0  0  0  0
    3.3584  -13.6653   14.1876 C   0  0  0  0  0  0  0  0  0  0  0  0
    2.0932  -11.7366   13.9604 O   0  0  0  0  0  0  0  0  0  0  0  0
    4.5540  -11.4861   11.4117 O   0  0  0  0  0  0  0  0  0  0  0  0
    2.2352   -8.2230   19.0543 C   0  0  0  0  0  0  0  0  0  0  0  0
    1.1472  -10.5193   12.1669 C   0  0  0  0  0  0  0  0  0  0  0  0
    3.3453  -14.8501   13.5455 O   0  0  0  0  0  0  0  0  0  0  0  0
    5.5167  -10.8541   21.3343 C   0  0  0  0  0  0  0  0  0  0  0  0
    1.9797  -10.9723   11.0359 O   0  0  0  0  0  0  0  0  0  0  0  0
    1.6432  -11.1740   16.6438 O   0  0  0  0  0  0  0  0  0  0  0  0
    2.6994   -6.5571   15.8819 O   0  0  0  0  0  0  0  0  0  0  0  0
    2.5752   -8.2201   14.1274 C   0  0  0  0  0  0  0  0  0  0  0  0
    6.4381  -11.9302   15.5195 C   0  0  0  0  0  0  0  0  0  0  0  0
    4.4296  -12.1704   12.5917 C   0  0  0  0  0  0  0  0  0  0  0  0
    2.9108   -9.5831   13.7261 O   0  0  0  0  0  0  0  0  0  0  0  0
    5.2647  -11.0614   19.8342 C   0  0  0  0  0  0  0  0  0  0  0  0
    1.7819  -10.4063   13.5456 C   0  0  0  0  0  0  0  0  0  0  0  0
    3.7688   -9.3517   20.5976 C   0  0  0  0  0  0  0  0  0  0  0  0
    2.7786   -8.8960   17.9175 C   0  0  0  0  0  0  0  0  0  0  0  0
    1.7767  -10.0451   15.9230 C   0  0  0  0  0  0  0  0  0  0  0  0
    2.1391   -8.7664   16.5874 C   0  0  0  0  0  0  0  0  0  0  0  0
    5.7156  -12.9138   14.6450 C   0  0  0  0  0  0  0  0  0  0  0  0
    3.0904  -12.5081   13.2096 C   0  0  0  0  0  0  0  0  0  0  0  0
    6.0312  -12.2430   21.7955 C   0  0  0  0  0  0  0  0  0  0  0  0
  1 34  1  0
  2 27  1  0
  2 30  1  0
  3 21  1  0
  3 22  1  0
  3 31  1  0
  4 10  1  0
  4 12  1  0
  4 32  1  0
  5 15  2  0
  5 28  1  0
  6  9  1  0
  6 29  2  0
  7 24  1  0
  7 32  1  0
  8 10  1  0
  9 26  1  0
  9 28  2  0
 11 18  1  0
 11 28  1  0
 12 17  1  0
 12 33  1  0
 13 27  1  0
 13 33  1  0
 14 24  1  0
 15 29  1  0
 16 19  1  0
 16 27  1  0
 18 26  1  0
 18 34  1  0
 20 30  1  0
 22 25  1  0
 23 32  1  0
 24 33  1  0
 25 27  1  0
 29 31  1  0
 30 31  1  0
M  END
$$$$
