
     RDKit          3D

 23 24  0  0  0  0  0  0  0  0999 V2000
    3.0970   -8.9879   16.9554 C   0  0  0  0  0  0  0  0  0  0  0  0
    4.8823  -12.3958   17.1779 C   0  0  0  0  0  0  0  0  0  0  0  0
    3.2834  -10.8239   15.3166 C   0  0  0  0  0  0  0  0  0  0  0  0
    1.3892  -12.4330   16.0224 C   0  0  0  0  0  0  0  0  0  0  0  0
    4.5344  -10.4466   18.7937 C   0  0  0  0  0  0  0  0  0  0  0  0
    2.1555   -8.4904   13.5871 C   0  0  0  0  0  0  0  0  0  0  0  0
    3.2061  -10.7317   13.2280 C   0  0  0  0  0  0  0  0  0  0  0  0
    4.3636  -10.9660   17.5313 C   0  0  0  0  0  0  0  0  0  0  0  0
    4.1292  -11.0849   14.2674 O   0  0  0  0  0  0  0  0  0  0  0  0
    3.5940  -11.1977   11.8776 C   0  0  0  0  0  0  0  0  0  0  0  0
    5.6192  -12.9842   18.4224 C   0  0  0  0  0  0  0  0  0  0  0  0
    6.6872  -11.5213   20.1660 F   0  0  0  0  0  0  0  0  0  0  0  0
    6.2158  -13.5965   20.7361 F   0  0  0  0  0  0  0  0  0  0  0  0
    1.0569  -10.5236   14.3557 C   0  0  0  0  0  0  0  0  0  0  0  0
    3.1708   -8.5237   18.2361 C   0  0  0  0  0  0  0  0  0  0  0  0
    4.0358   -8.8199   20.5989 C   0  0  0  0  0  0  0  0  0  0  0  0
    1.8717   -9.9691   13.1699 C   0  0  0  0  0  0  0  0  0  0  0  0
    6.0637  -12.5871   19.8735 C   0  0  0  0  0  0  0  0  0  0  0  0
    2.4661  -11.1020   10.9486 O   0  0  0  0  0  0  0  0  0  0  0  0
    1.9372  -11.3564   15.1774 C   0  0  0  0  0  0  0  0  0  0  0  0
    2.3301   -7.3178   18.6244 C   0  0  0  0  0  0  0  0  0  0  0  0
    3.6248  -10.1957   16.5874 C   0  0  0  0  0  0  0  0  0  0  0  0
    3.9324   -9.2613   19.1624 C   0  0  0  0  0  0  0  0  0  0  0  0
  1 15  2  0
  1 22  1  0
  2  8  1  0
  2 11  1  0
  3  9  1  0
  3 20  1  0
  3 22  1  0
  4 20  1  0
  5  8  1  0
  5 23  2  0
  6 17  1  0
  7  9  1  0
  7 10  1  0
  7 17  1  0
  8 22  2  0
 10 19  1  0
 11 18  1  0
 12 18  1  0
 13 18  1  0
 14 17  1  0
 14 20  1  0
 15 21  1  0
 15 23  1  0
 16 23  1  0
M  END
$$$$
