
     RDKit          3D

 33 35  0  0  0  0  0  0  0  0999 V2000
    2.2829  -12.3712   14.2790 C   0  0  0  0  0  0  0  0  0  0  0  0
    1.1131  -11.4203   14.0553 C   0  0  0  0  0  0  0  0  0  0  0  0
    5.5859  -12.0518   16.6965 C   0  0  0  0  0  0  0  0  0  0  0  0
    2.2277  -10.1275   15.7756 N   0  0  0  0  0  0  0  0  0  0  0  0
   -0.2434  -10.5827   18.7646 C   0  0  0  0  0  0  0  0  0  0  0  0
    1.5735   -9.7924   20.3408 C   0  0  0  0  0  0  0  0  0  0  0  0
    4.7605  -10.0205   17.6109 C   0  0  0  0  0  0  0  0  0  0  0  0
    4.3506  -11.5068   11.3557 C   0  0  0  0  0  0  0  0  0  0  0  0
    4.8832  -12.4547   14.0192 C   0  0  0  0  0  0  0  0  0  0  0  0
    5.9339  -11.4967   19.1450 C   0  0  0  0  0  0  0  0  0  0  0  0
    6.1580  -13.2538   22.1203 O   0  0  0  0  0  0  0  0  0  0  0  0
    1.5329  -10.0689   14.5943 C   0  0  0  0  0  0  0  0  0  0  0  0
    5.5888  -12.1346   11.7142 C   0  0  0  0  0  0  0  0  0  0  0  0
    3.8757   -8.6492   17.1716 S   0  0  0  0  0  0  0  0  0  0  0  0
    4.1821   -8.0436   15.8710 O   0  0  0  0  0  0  0  0  0  0  0  0
    5.5095  -11.1453   22.4123 O   0  0  0  0  0  0  0  0  0  0  0  0
    3.4034  -11.4183   12.3239 C   0  0  0  0  0  0  0  0  0  0  0  0
    2.3154   -9.3196   16.9646 C   0  0  0  0  0  0  0  0  0  0  0  0
    5.8467  -12.5446   13.0014 C   0  0  0  0  0  0  0  0  0  0  0  0
    1.3778   -8.9124   18.1084 C   0  0  0  0  0  0  0  0  0  0  0  0
    4.9391  -10.8716   16.5874 C   0  0  0  0  0  0  0  0  0  0  0  0
    2.2535  -10.6979   11.8882 O   0  0  0  0  0  0  0  0  0  0  0  0
    5.2644  -10.3063   18.8771 C   0  0  0  0  0  0  0  0  0  0  0  0
    1.3720   -9.0084   14.0226 O   0  0  0  0  0  0  0  0  0  0  0  0
    0.9774   -9.9876   18.9825 N   0  0  0  0  0  0  0  0  0  0  0  0
    3.5629  -12.0422   13.5892 C   0  0  0  0  0  0  0  0  0  0  0  0
    5.9969  -12.0400   21.7193 C   0  0  0  0  0  0  0  0  0  0  0  0
    6.5336  -11.8015   20.4034 C   0  0  0  0  0  0  0  0  0  0  0  0
    2.1403  -13.0443   15.6569 C   0  0  0  0  0  0  0  0  0  0  0  0
    5.5223  -12.8708   15.3902 C   0  0  0  0  0  0  0  0  0  0  0  0
   -0.1890  -11.6670   17.9625 O   0  0  0  0  0  0  0  0  0  0  0  0
    4.0243   -7.7336   18.2184 O   0  0  0  0  0  0  0  0  0  0  0  0
    6.1535  -12.3624   17.9802 C   0  0  0  0  0  0  0  0  0  0  0  0
  1  2  1  0
  1 26  1  0
  1 29  1  0
  2 12  1  0
  3 21  2  0
  3 30  1  0
  3 33  1  0
  4 12  1  0
  4 18  1  0
  5 25  1  0
  5 31  1  0
  6 25  1  0
  7 14  1  0
  7 21  1  0
  7 23  2  0
  8 13  1  0
  8 17  2  0
  9 19  1  0
  9 26  1  0
  9 30  1  0
 10 23  1  0
 10 28  1  0
 10 33  2  0
 11 27  2  0
 12 24  2  0
 13 19  2  0
 14 15  1  0
 14 18  1  0
 14 32  1  0
 16 27  1  0
 17 22  1  0
 17 26  1  0
 18 20  1  0
 20 25  1  0
 27 28  1  0
M  END
$$$$
