
     RDKit          3D

 40 43  0  0  0  0  0  0  0  0999 V2000
  -19.6544   16.2698  -27.1932 C   0  0  0  0  0  0  0  0  0  0  0  0
  -19.6645   17.2143  -32.2047 C   0  0  0  0  0  0  0  0  0  0  0  0
  -18.8758   17.5947  -25.3577 C   0  0  0  0  0  0  0  0  0  0  0  0
  -18.0863   20.1926  -30.3156 C   0  0  0  0  0  0  0  0  0  0  0  0
  -19.7318   15.2341  -33.6953 C   0  0  0  0  0  0  0  0  0  0  0  0
  -22.0017   16.4542  -28.1363 C   0  0  0  0  0  0  0  0  0  0  0  0
  -22.8017   15.2379  -27.6906 C   0  0  0  0  0  0  0  0  0  0  0  0
  -18.6979   16.6000  -26.2748 C   0  0  0  0  0  0  0  0  0  0  0  0
  -16.3872   16.4213  -30.3548 N   0  0  0  0  0  0  0  0  0  0  0  0
  -18.8020   16.2695  -33.0269 C   0  0  0  0  0  0  0  0  0  0  0  0
  -14.8694   16.1387  -27.0157 F   0  0  0  0  0  0  0  0  0  0  0  0
  -19.3260   15.4015  -28.2071 O   0  0  0  0  0  0  0  0  0  0  0  0
  -21.1399   17.8967  -26.2394 C   0  0  0  0  0  0  0  0  0  0  0  0
  -16.5061   17.1550  -31.5461 C   0  0  0  0  0  0  0  0  0  0  0  0
  -20.9481   16.8774  -27.1533 C   0  0  0  0  0  0  0  0  0  0  0  0
  -19.3391   19.4480  -30.6543 C   0  0  0  0  0  0  0  0  0  0  0  0
  -21.0113   17.0710  -31.7795 O   0  0  0  0  0  0  0  0  0  0  0  0
  -24.3603   14.6458  -29.3451 O   0  0  0  0  0  0  0  0  0  0  0  0
  -17.3811   15.5350  -33.1771 C   0  0  0  0  0  0  0  0  0  0  0  0
  -15.2359   16.1677  -29.4976 C   0  0  0  0  0  0  0  0  0  0  0  0
  -21.4010   16.0889  -30.8554 C   0  0  0  0  0  0  0  0  0  0  0  0
  -17.1544   18.8597  -33.1188 O   0  0  0  0  0  0  0  0  0  0  0  0
  -25.0395   15.7271  -27.5056 O   0  0  0  0  0  0  0  0  0  0  0  0
  -21.3088   16.1480  -29.4618 N   0  0  0  0  0  0  0  0  0  0  0  0
  -18.9533   18.3375  -31.5545 C   0  0  0  0  0  0  0  0  0  0  0  0
  -16.9068   15.3334  -28.1003 N   0  0  0  0  0  0  0  0  0  0  0  0
  -20.1263   18.2658  -25.3304 C   0  0  0  0  0  0  0  0  0  0  0  0
  -16.1464   13.1859  -27.0416 F   0  0  0  0  0  0  0  0  0  0  0  0
  -20.3047   19.3707  -24.4343 C   0  0  0  0  0  0  0  0  0  0  0  0
  -16.9765   19.3976  -30.7367 N   0  0  0  0  0  0  0  0  0  0  0  0
  -17.9183   21.5123  -31.0959 C   0  0  0  0  0  0  0  0  0  0  0  0
  -15.4531   15.3509  -28.0977 C   0  0  0  0  0  0  0  0  0  0  0  0
  -15.1109   14.0066  -27.2268 C   0  0  0  0  0  0  0  0  0  0  0  0
  -23.0201   17.5706  -28.5163 C   0  0  0  0  0  0  0  0  0  0  0  0
  -21.7744   15.0537  -31.2449 O   0  0  0  0  0  0  0  0  0  0  0  0
  -14.1748   13.8798  -26.3219 F   0  0  0  0  0  0  0  0  0  0  0  0
  -16.0891   16.3350  -32.7480 C   0  0  0  0  0  0  0  0  0  0  0  0
  -18.1299   15.0214  -28.5555 C   0  0  0  0  0  0  0  0  0  0  0  0
  -24.2141   15.1412  -28.1990 C   0  0  0  0  0  0  0  0  0  0  0  0
  -17.4013   18.4246  -31.8285 C   0  0  0  0  0  0  0  0  0  0  0  0
  1  8  1  0
  1 12  1  0
  1 15  2  0
  2 10  1  0
  2 17  1  0
  2 25  2  0
  3  8  2  0
  3 27  1  0
  4 16  1  0
  4 30  1  0
  4 31  1  0
  5 10  1  0
  6  7  1  0
  6 15  1  0
  6 24  1  0
  6 34  1  0
  7 39  1  0
  9 14  1  0
  9 20  2  3
 10 19  1  0
 11 32  1  0
 12 38  1  0
 13 15  1  0
 13 27  2  0
 14 37  1  0
 14 40  1  0
 16 25  1  0
 17 21  1  0
 18 39  2  0
 19 37  1  0
 20 32  1  0
 21 24  1  0
 21 35  2  0
 22 40  1  0
 23 39  1  0
 25 40  1  0
 26 32  1  0
 26 38  1  0
 27 29  1  0
 28 33  1  0
 30 40  1  0
 32 33  1  0
 33 36  1  0
M  END
$$$$
