
     RDKit          3D

 32 35  0  0  0  0  0  0  0  0999 V2000
  -17.3039   18.3626  -25.5117 O   0  0  0  0  0  0  0  0  0  0  0  0
  -16.5311   15.7497  -32.4258 C   0  0  0  0  0  0  0  0  0  0  0  0
  -16.5442   17.3149  -28.8979 C   0  0  0  0  0  0  0  0  0  0  0  0
  -23.2849   15.1484  -28.4672 C   0  0  0  0  0  0  0  0  0  0  0  0
  -17.2238   14.9265  -33.5051 C   0  0  0  0  0  0  0  0  0  0  0  0
  -19.3492   16.4567  -25.9461 C   0  0  0  0  0  0  0  0  0  0  0  0
  -19.4659   17.1354  -28.1510 C   0  0  0  0  0  0  0  0  0  0  0  0
  -17.5584   16.2894  -29.5279 C   0  0  0  0  0  0  0  0  0  0  0  0
  -13.8265   15.7518  -27.6655 C   0  0  0  0  0  0  0  0  0  0  0  0
  -18.5734   14.4593  -32.8199 C   0  0  0  0  0  0  0  0  0  0  0  0
  -16.4530   14.1522  -28.0513 C   0  0  0  0  0  0  0  0  0  0  0  0
  -20.2869   16.2807  -30.1619 C   0  0  0  0  0  0  0  0  0  0  0  0
  -17.1217   14.9144  -28.9761 O   0  0  0  0  0  0  0  0  0  0  0  0
  -18.7939   17.2395  -26.9631 N   0  0  0  0  0  0  0  0  0  0  0  0
  -15.0032   17.3733  -29.4240 C   0  0  0  0  0  0  0  0  0  0  0  0
  -24.5177   15.9494  -27.9123 C   0  0  0  0  0  0  0  0  0  0  0  0
  -19.0288   16.5538  -29.3463 C   0  0  0  0  0  0  0  0  0  0  0  0
  -14.3290   16.0466  -29.1043 C   0  0  0  0  0  0  0  0  0  0  0  0
  -17.4606   15.9414  -31.2306 C   0  0  0  0  0  0  0  0  0  0  0  0
  -14.1838   14.4282  -27.0732 C   0  0  0  0  0  0  0  0  0  0  0  0
  -23.6874   16.6677  -30.4960 C   0  0  0  0  0  0  0  0  0  0  0  0
  -22.6840   16.0154  -29.6061 C   0  0  0  0  0  0  0  0  0  0  0  0
  -14.8979   17.8169  -30.8994 C   0  0  0  0  0  0  0  0  0  0  0  0
  -17.8124   15.9971  -34.5050 C   0  0  0  0  0  0  0  0  0  0  0  0
  -16.7370   18.0735  -27.7901 C   0  0  0  0  0  0  0  0  0  0  0  0
  -14.1020   18.4736  -28.6918 C   0  0  0  0  0  0  0  0  0  0  0  0
  -21.4344   16.7019  -29.3354 C   0  0  0  0  0  0  0  0  0  0  0  0
  -17.5919   17.9566  -26.6906 C   0  0  0  0  0  0  0  0  0  0  0  0
  -18.6281   15.2380  -31.6817 O   0  0  0  0  0  0  0  0  0  0  0  0
  -15.6584   14.4124  -26.8745 O   0  0  0  0  0  0  0  0  0  0  0  0
  -24.1553   17.4428  -27.7918 C   0  0  0  0  0  0  0  0  0  0  0  0
  -20.9046   17.4344  -28.1645 C   0  0  0  0  0  0  0  0  0  0  0  0
  1 28  2  0
  2  5  1  0
  2 19  1  0
  3  8  1  0
  3 15  1  0
  3 25  1  0
  4 16  1  0
  4 22  1  0
  5 10  1  0
  5 24  1  0
  6 14  1  0
  7 14  1  0
  7 17  1  0
  7 32  1  0
  8 13  1  0
  8 17  1  0
  8 19  1  0
  9 18  1  0
  9 20  1  0
 10 29  1  0
 11 13  1  0
 11 30  1  0
 12 17  1  0
 12 27  1  0
 14 28  1  0
 15 18  1  0
 15 23  1  0
 15 26  1  0
 16 31  1  0
 19 29  1  0
 20 30  1  0
 21 22  1  0
 22 27  1  0
 25 28  1  0
 27 32  1  0
M  END
$$$$
