
     RDKit          3D

 26 29  0  0  0  0  0  0  0  0999 V2000
  -19.2611   19.2518  -25.6368 O   0  0  0  0  0  0  0  0  0  0  0  0
  -17.0919   14.5212  -28.6335 C   0  0  0  0  0  0  0  0  0  0  0  0
  -20.0278   16.6855  -28.2325 C   0  0  0  0  0  0  0  0  0  0  0  0
  -18.9660   14.6859  -32.5344 C   0  0  0  0  0  0  0  0  0  0  0  0
  -18.5791   17.3389  -31.4851 C   0  0  0  0  0  0  0  0  0  0  0  0
  -19.5394   17.9121  -27.6082 C   0  0  0  0  0  0  0  0  0  0  0  0
  -15.8266   15.1493  -29.1492 C   0  0  0  0  0  0  0  0  0  0  0  0
  -19.7531   18.1129  -26.2429 C   0  0  0  0  0  0  0  0  0  0  0  0
  -16.1197   16.1314  -30.2883 C   0  0  0  0  0  0  0  0  0  0  0  0
  -20.9016   16.0194  -26.0846 C   0  0  0  0  0  0  0  0  0  0  0  0
  -15.2990   14.5023  -26.9178 C   0  0  0  0  0  0  0  0  0  0  0  0
  -20.7945   17.5096  -24.1010 C   0  0  0  0  0  0  0  0  0  0  0  0
  -16.6908   15.3098  -31.4840 C   0  0  0  0  0  0  0  0  0  0  0  0
  -18.0070   17.0200  -32.8610 C   0  0  0  0  0  0  0  0  0  0  0  0
  -18.3528   18.6386  -30.8734 C   0  0  0  0  0  0  0  0  0  0  0  0
  -19.8571   16.2933  -29.6870 C   0  0  0  0  0  0  0  0  0  0  0  0
  -16.6490   16.1794  -32.7656 C   0  0  0  0  0  0  0  0  0  0  0  0
  -20.4791   17.1929  -25.4854 C   0  0  0  0  0  0  0  0  0  0  0  0
  -18.9820   15.9477  -33.5793 C   0  0  0  0  0  0  0  0  0  0  0  0
  -14.7377   14.6449  -28.2927 C   0  0  0  0  0  0  0  0  0  0  0  0
  -18.1830   14.9511  -31.1584 C   0  0  0  0  0  0  0  0  0  0  0  0
  -20.6916   15.8077  -27.3852 C   0  0  0  0  0  0  0  0  0  0  0  0
  -16.2953   15.5171  -26.6835 C   0  0  0  0  0  0  0  0  0  0  0  0
  -18.7407   16.2252  -30.5310 N   0  0  0  0  0  0  0  0  0  0  0  0
  -16.8693   14.2866  -27.2440 C   0  0  0  0  0  0  0  0  0  0  0  0
  -20.9127   15.9513  -30.2710 O   0  0  0  0  0  0  0  0  0  0  0  0
  1  8  1  0
  2  7  1  0
  2 25  1  0
  3  6  2  0
  3 16  1  0
  3 22  1  0
  4 19  1  0
  4 21  1  0
  5 14  1  0
  5 15  1  0
  5 24  1  0
  6  8  1  0
  7  9  1  0
  7 20  1  0
  8 18  2  0
  9 13  1  0
 10 18  1  0
 10 22  2  0
 11 20  1  0
 11 23  1  0
 12 18  1  0
 13 17  1  0
 13 21  1  0
 14 17  1  0
 14 19  1  0
 16 24  1  0
 16 26  2  0
 21 24  1  0
 23 25  1  0
M  END
$$$$
