
     RDKit          3D

 14 14  0  0  0  0  0  0  0  0999 V2000
  -18.6329   15.2102  -28.2596 C   0  0  0  0  0  0  0  0  0  0  0  0
  -17.9457   17.9262  -23.8942 Cl  0  0  0  0  0  0  0  0  0  0  0  0
  -21.3783   15.9801  -28.5608 C   0  0  0  0  0  0  0  0  0  0  0  0
  -19.2006   16.0091  -27.3269 C   0  0  0  0  0  0  0  0  0  0  0  0
  -16.4615   15.4449  -27.2805 C   0  0  0  0  0  0  0  0  0  0  0  0
  -21.0650   15.8384  -30.9171 O   0  0  0  0  0  0  0  0  0  0  0  0
  -20.5989   17.4785  -24.8485 S   0  0  0  0  0  0  0  0  0  0  0  0
  -18.3880   16.5427  -26.2856 C   0  0  0  0  0  0  0  0  0  0  0  0
  -21.6726   16.4552  -29.9010 C   0  0  0  0  0  0  0  0  0  0  0  0
  -20.6220   16.2977  -27.5260 C   0  0  0  0  0  0  0  0  0  0  0  0
  -18.8859   17.3041  -25.1434 C   0  0  0  0  0  0  0  0  0  0  0  0
  -22.6745   17.2722  -30.1157 O   0  0  0  0  0  0  0  0  0  0  0  0
  -17.0046   16.2952  -26.3293 C   0  0  0  0  0  0  0  0  0  0  0  0
  -17.3088   14.8779  -28.2689 C   0  0  0  0  0  0  0  0  0  0  0  0
  1  4  1  0
  1 14  2  0
  2 11  1  0
  3  9  1  0
  3 10  1  0
  4  8  1  0
  4 10  2  3
  5 13  2  0
  5 14  1  0
  6  9  2  0
  7 11  1  0
  8 11  2  3
  8 13  1  0
  9 12  1  0
M  END
$$$$
