
     RDKit          3D

 22 25  0  0  0  0  0  0  0  0999 V2000
  -21.7158   16.3672  -28.3807 C   0  0  0  0  0  0  0  0  0  0  0  0
  -17.4022   15.4566  -28.3655 C   0  0  0  0  0  0  0  0  0  0  0  0
  -19.8738   16.2554  -29.9434 C   0  0  0  0  0  0  0  0  0  0  0  0
  -20.2085   17.0007  -32.2009 C   0  0  0  0  0  0  0  0  0  0  0  0
  -20.4942   17.0891  -30.8595 C   0  0  0  0  0  0  0  0  0  0  0  0
  -18.2272   15.9492  -27.3535 C   0  0  0  0  0  0  0  0  0  0  0  0
  -18.3388   17.0677  -25.2879 F   0  0  0  0  0  0  0  0  0  0  0  0
  -17.5825   16.4867  -26.2073 C   0  0  0  0  0  0  0  0  0  0  0  0
  -19.6623   15.8668  -27.4011 C   0  0  0  0  0  0  0  0  0  0  0  0
  -19.4498   15.9338  -32.6452 C   0  0  0  0  0  0  0  0  0  0  0  0
  -15.4415   15.7736  -26.9898 C   0  0  0  0  0  0  0  0  0  0  0  0
  -16.0453   15.3477  -28.1673 C   0  0  0  0  0  0  0  0  0  0  0  0
  -20.6559   15.8551  -26.3384 C   0  0  0  0  0  0  0  0  0  0  0  0
  -17.8510   15.0558  -29.5609 O   0  0  0  0  0  0  0  0  0  0  0  0
  -20.5894   17.9415  -33.0753 O   0  0  0  0  0  0  0  0  0  0  0  0
  -20.3480   16.1490  -28.6257 N   0  0  0  0  0  0  0  0  0  0  0  0
  -22.4276   17.2574  -28.8752 O   0  0  0  0  0  0  0  0  0  0  0  0
  -16.2459   16.3678  -26.0105 C   0  0  0  0  0  0  0  0  0  0  0  0
  -19.4624   15.6530  -33.9666 O   0  0  0  0  0  0  0  0  0  0  0  0
  -21.9560   15.7446  -27.1241 C   0  0  0  0  0  0  0  0  0  0  0  0
  -18.7025   15.2134  -31.7338 C   0  0  0  0  0  0  0  0  0  0  0  0
  -18.8060   15.4758  -30.4041 C   0  0  0  0  0  0  0  0  0  0  0  0
  1 16  1  0
  1 17  2  0
  1 20  1  0
  2  6  1  0
  2 12  2  0
  2 14  1  0
  3  5  1  0
  3 16  1  0
  3 22  1  0
  4  5  2  0
  4 10  1  0
  4 15  1  0
  6  8  1  0
  6  9  1  0
  7  8  1  0
  8 18  2  0
  9 13  1  0
  9 16  1  0
 10 19  1  0
 10 21  1  0
 11 12  1  0
 11 18  1  0
 13 20  1  0
 14 22  1  0
 21 22  2  0
M  END
$$$$
