
     RDKit          3D

 31 36  0  0  0  0  0  0  0  0999 V2000
  -21.7063   15.8653  -30.8840 C   0  0  0  0  0  0  0  0  0  0  0  0
  -21.3453   17.5279  -29.1895 C   0  0  0  0  0  0  0  0  0  0  0  0
  -19.1227   16.0266  -29.0707 C   0  0  0  0  0  0  0  0  0  0  0  0
  -16.7526   18.2251  -26.1684 C   0  0  0  0  0  0  0  0  0  0  0  0
  -21.9725   16.1863  -27.0010 C   0  0  0  0  0  0  0  0  0  0  0  0
  -15.7879   17.6837  -27.2988 C   0  0  0  0  0  0  0  0  0  0  0  0
  -14.3709   17.6815  -27.8637 C   0  0  0  0  0  0  0  0  0  0  0  0
  -20.0066   17.1148  -28.5210 C   0  0  0  0  0  0  0  0  0  0  0  0
  -19.6098   17.0390  -31.8818 O   0  0  0  0  0  0  0  0  0  0  0  0
  -22.3695   18.2408  -28.2208 C   0  0  0  0  0  0  0  0  0  0  0  0
  -22.6897   15.6534  -28.2127 C   0  0  0  0  0  0  0  0  0  0  0  0
  -16.9386   14.4937  -28.6159 C   0  0  0  0  0  0  0  0  0  0  0  0
  -20.1668   14.8893  -32.4555 C   0  0  0  0  0  0  0  0  0  0  0  0
  -18.0458   17.5609  -26.4458 C   0  0  0  0  0  0  0  0  0  0  0  0
  -13.7751   16.6760  -28.7234 C   0  0  0  0  0  0  0  0  0  0  0  0
  -24.0706   16.3580  -28.1117 C   0  0  0  0  0  0  0  0  0  0  0  0
  -14.5517   14.5785  -27.9773 C   0  0  0  0  0  0  0  0  0  0  0  0
  -16.2559   16.3377  -27.3431 C   0  0  0  0  0  0  0  0  0  0  0  0
  -22.0623   16.1828  -29.4875 C   0  0  0  0  0  0  0  0  0  0  0  0
  -15.7648   15.3215  -28.1995 C   0  0  0  0  0  0  0  0  0  0  0  0
  -17.7279   16.2531  -27.1277 C   0  0  0  0  0  0  0  0  0  0  0  0
  -22.0412   17.6818  -26.8140 C   0  0  0  0  0  0  0  0  0  0  0  0
  -20.2536   15.9689  -31.3127 C   0  0  0  0  0  0  0  0  0  0  0  0
  -19.3732   15.3303  -30.2789 C   0  0  0  0  0  0  0  0  0  0  0  0
  -14.5533   13.9773  -26.5477 C   0  0  0  0  0  0  0  0  0  0  0  0
  -18.2203   15.2088  -28.1483 C   0  0  0  0  0  0  0  0  0  0  0  0
  -21.0239   15.5287  -26.3060 F   0  0  0  0  0  0  0  0  0  0  0  0
  -14.6835   15.5440  -29.0346 C   0  0  0  0  0  0  0  0  0  0  0  0
  -23.8420   17.8166  -28.4702 C   0  0  0  0  0  0  0  0  0  0  0  0
  -22.1881   19.7345  -28.3108 C   0  0  0  0  0  0  0  0  0  0  0  0
  -21.1143   18.5029  -30.3248 C   0  0  0  0  0  0  0  0  0  0  0  0
  1 19  1  0
  1 23  1  0
  2  8  1  0
  2 10  1  0
  2 19  1  0
  2 31  1  0
  3  8  1  0
  3 24  1  0
  3 26  1  0
  4  6  1  0
  4 14  1  0
  5 11  1  0
  5 22  1  0
  5 27  1  0
  6  7  1  0
  6 18  1  0
  7 15  1  0
  9 23  1  0
 10 22  1  0
 10 29  1  0
 10 30  1  0
 11 16  1  0
 11 19  1  0
 12 20  1  0
 12 26  1  0
 13 23  1  0
 14 21  1  0
 15 28  1  0
 16 29  1  0
 17 25  1  0
 17 28  1  0
 18 20  1  0
 18 21  1  0
 20 28  1  0
 21 26  1  0
 23 24  1  0
M  END
$$$$
