
     RDKit          3D

 29 33  0  0  0  0  0  0  0  0999 V2000
  -16.5646   16.0899  -26.4893 C   0  0  0  0  0  0  0  0  0  0  0  0
  -23.5328   15.2210  -27.9255 C   0  0  0  0  0  0  0  0  0  0  0  0
  -22.4706   16.0250  -30.5466 O   0  0  0  0  0  0  0  0  0  0  0  0
  -19.5222   15.3475  -29.3154 O   0  0  0  0  0  0  0  0  0  0  0  0
  -21.3257   17.7043  -29.3373 C   0  0  0  0  0  0  0  0  0  0  0  0
  -21.9708   16.3850  -29.3656 C   0  0  0  0  0  0  0  0  0  0  0  0
  -19.1347   18.6489  -30.3707 C   0  0  0  0  0  0  0  0  0  0  0  0
  -21.1947   19.8904  -30.0659 O   0  0  0  0  0  0  0  0  0  0  0  0
  -23.9255   14.1485  -28.6852 O   0  0  0  0  0  0  0  0  0  0  0  0
  -14.5989   16.3363  -28.0407 C   0  0  0  0  0  0  0  0  0  0  0  0
  -17.9950   16.8539  -29.5532 N   0  0  0  0  0  0  0  0  0  0  0  0
  -15.1499   15.4691  -26.8979 C   0  0  0  0  0  0  0  0  0  0  0  0
  -25.6660   16.3467  -27.4339 C   0  0  0  0  0  0  0  0  0  0  0  0
  -20.0680   17.6244  -30.0531 C   0  0  0  0  0  0  0  0  0  0  0  0
  -21.9420   19.0048  -29.3760 C   0  0  0  0  0  0  0  0  0  0  0  0
  -24.3524   16.4480  -27.8302 C   0  0  0  0  0  0  0  0  0  0  0  0
  -21.3853   15.9266  -26.8936 C   0  0  0  0  0  0  0  0  0  0  0  0
  -19.8503   19.8819  -30.2471 C   0  0  0  0  0  0  0  0  0  0  0  0
  -23.8838   17.7061  -28.0346 C   0  0  0  0  0  0  0  0  0  0  0  0
  -25.8718   18.7520  -27.4839 C   0  0  0  0  0  0  0  0  0  0  0  0
  -17.6475   18.0871  -30.2518 C   0  0  0  0  0  0  0  0  0  0  0  0
  -19.2568   16.4599  -29.5602 C   0  0  0  0  0  0  0  0  0  0  0  0
  -16.9429   16.1837  -28.8698 C   0  0  0  0  0  0  0  0  0  0  0  0
  -26.4336   17.4929  -27.2493 C   0  0  0  0  0  0  0  0  0  0  0  0
  -15.6529   16.8665  -29.0454 C   0  0  0  0  0  0  0  0  0  0  0  0
  -22.1033   15.5487  -28.1708 C   0  0  0  0  0  0  0  0  0  0  0  0
  -17.3898   15.4544  -27.6202 C   0  0  0  0  0  0  0  0  0  0  0  0
  -24.5707   18.8417  -27.8724 C   0  0  0  0  0  0  0  0  0  0  0  0
  -16.0221   17.9345  -30.1387 C   0  0  0  0  0  0  0  0  0  0  0  0
  1 12  1  0
  1 27  1  0
  2  9  1  0
  2 16  1  0
  2 26  1  0
  3  6  1  0
  4 22  2  0
  5  6  1  0
  5 14  1  0
  5 15  1  0
  6 26  1  0
  7 14  1  0
  7 18  2  0
  7 21  1  0
  8 15  1  0
  8 18  1  0
 10 12  1  0
 10 25  1  0
 11 21  1  0
 11 22  1  0
 11 23  1  0
 13 16  2  0
 13 24  1  0
 14 22  1  0
 16 19  1  0
 17 26  1  0
 19 28  2  0
 20 24  2  0
 20 28  1  0
 21 29  1  0
 23 25  1  0
 23 27  1  0
 25 29  1  0
M  END
$$$$
