
     RDKit          3D

 31 32  0  0  0  0  0  0  0  0999 V2000
  -20.8167   18.1827  -24.8055 C   0  0  0  0  0  0  0  0  0  0  0  0
  -20.0880   15.9636  -30.8174 C   0  0  0  0  0  0  0  0  0  0  0  0
  -13.5472   17.6464  -29.6159 C   0  0  0  0  0  0  0  0  0  0  0  0
  -13.1619   15.3966  -28.5195 C   0  0  0  0  0  0  0  0  0  0  0  0
  -17.4713   15.0473  -28.4113 C   0  0  0  0  0  0  0  0  0  0  0  0
  -20.2912   16.5446  -26.4461 C   0  0  0  0  0  0  0  0  0  0  0  0
  -20.7354   17.8109  -22.3382 C   0  0  0  0  0  0  0  0  0  0  0  0
  -15.2554   16.5152  -31.8247 C   0  0  0  0  0  0  0  0  0  0  0  0
  -21.5910   18.7668  -25.7766 N   0  0  0  0  0  0  0  0  0  0  0  0
  -17.7723   16.7059  -31.2032 C   0  0  0  0  0  0  0  0  0  0  0  0
  -20.1135   16.4097  -32.2424 C   0  0  0  0  0  0  0  0  0  0  0  0
  -14.2012   14.7146  -27.8370 C   0  0  0  0  0  0  0  0  0  0  0  0
  -16.1554   13.6328  -27.0264 N   0  0  0  0  0  0  0  0  0  0  0  0
  -14.9019   13.8473  -27.2228 C   0  0  0  0  0  0  0  0  0  0  0  0
  -19.7947   15.1038  -33.0781 C   0  0  0  0  0  0  0  0  0  0  0  0
  -21.4042   19.9997  -23.0261 C   0  0  0  0  0  0  0  0  0  0  0  0
  -19.4482   15.6118  -26.9837 O   0  0  0  0  0  0  0  0  0  0  0  0
  -17.8941   17.9388  -31.0245 O   0  0  0  0  0  0  0  0  0  0  0  0
  -13.3645   16.1032  -29.8731 C   0  0  0  0  0  0  0  0  0  0  0  0
  -17.2011   14.2760  -27.4426 C   0  0  0  0  0  0  0  0  0  0  0  0
  -21.9506   18.1383  -26.9229 C   0  0  0  0  0  0  0  0  0  0  0  0
  -21.2708   17.0168  -27.2970 C   0  0  0  0  0  0  0  0  0  0  0  0
  -16.7312   16.2037  -32.2477 C   0  0  0  0  0  0  0  0  0  0  0  0
  -18.5988   15.8266  -30.5040 N   0  0  0  0  0  0  0  0  0  0  0  0
  -20.6332   18.8265  -23.4684 C   0  0  0  0  0  0  0  0  0  0  0  0
  -18.4562   15.6430  -29.1293 C   0  0  0  0  0  0  0  0  0  0  0  0
  -19.5813   15.5792  -28.3253 C   0  0  0  0  0  0  0  0  0  0  0  0
  -12.3888   18.1483  -28.7475 C   0  0  0  0  0  0  0  0  0  0  0  0
  -13.7002   18.3099  -30.9082 N   0  0  0  0  0  0  0  0  0  0  0  0
  -20.1133   17.0611  -25.2041 C   0  0  0  0  0  0  0  0  0  0  0  0
  -14.9728   18.0577  -31.6473 C   0  0  0  0  0  0  0  0  0  0  0  0
  1  9  1  0
  1 25  1  0
  1 30  1  0
  2 11  1  0
  2 24  1  0
  3 19  1  0
  3 28  1  0
  3 29  1  0
  4 12  2  0
  4 19  1  0
  5 20  2  3
  5 26  1  0
  6 17  1  0
  6 22  1  0
  6 30  2  0
  7 25  1  0
  8 23  1  0
  8 31  1  0
  9 21  1  0
 10 18  2  0
 10 23  1  0
 10 24  1  0
 11 15  1  0
 12 14  2  0
 13 14  1  0
 13 20  1  0
 16 25  1  0
 17 27  1  0
 21 22  2  0
 24 26  1  0
 26 27  1  0
 29 31  1  0
M  END
$$$$
