
     RDKit          3D

 20 22  0  0  0  0  0  0  0  0999 V2000
   17.1354   33.9256   13.2370 C   0  0  0  0  0  0  0  0  0  0  0  0
   10.1659   35.7208   17.9747 N   0  0  0  0  0  0  0  0  0  0  0  0
   12.4150   34.4645   15.5973 C   0  0  0  0  0  0  0  0  0  0  0  0
   12.8234   33.1382   15.3206 C   0  0  0  0  0  0  0  0  0  0  0  0
   10.7639   32.3189   16.2173 N   0  0  0  0  0  0  0  0  0  0  0  0
   11.9580   36.8216   17.5227 O   0  0  0  0  0  0  0  0  0  0  0  0
   15.2077   35.0682   12.2008 C   0  0  0  0  0  0  0  0  0  0  0  0
   15.6678   34.0664   13.0708 N   0  0  0  0  0  0  0  0  0  0  0  0
   11.9419   32.0666   15.5741 C   0  0  0  0  0  0  0  0  0  0  0  0
   10.5128   33.5928   16.7983 C   0  0  0  0  0  0  0  0  0  0  0  0
   11.3827   34.6600   16.5143 C   0  0  0  0  0  0  0  0  0  0  0  0
   13.0906   35.5915   14.8909 C   0  0  0  0  0  0  0  0  0  0  0  0
   13.0457   36.8909   15.0381 O   0  0  0  0  0  0  0  0  0  0  0  0
   14.2893   35.7082   12.8193 N   0  0  0  0  0  0  0  0  0  0  0  0
   14.0765   32.8640   14.7144 C   0  0  0  0  0  0  0  0  0  0  0  0
   13.9932   35.1822   13.9230 C   0  0  0  0  0  0  0  0  0  0  0  0
    9.5283   33.8356   17.6022 O   0  0  0  0  0  0  0  0  0  0  0  0
   15.3038   35.1097   10.6473 C   0  0  0  0  0  0  0  0  0  0  0  0
   11.1269   35.8759   17.3035 C   0  0  0  0  0  0  0  0  0  0  0  0
   14.6358   33.9314   14.0017 C   0  0  0  0  0  0  0  0  0  0  0  0
  1  8  1  0
  2 19  1  0
  3  4  1  0
  3 11  1  0
  3 12  2  0
  4  9  1  0
  4 15  1  0
  5  9  2  0
  5 10  1  0
  6 19  2  0
  7  8  1  0
  7 14  2  0
  7 18  1  0
  8 20  1  0
 10 11  1  0
 10 17  2  0
 11 19  1  0
 12 13  1  0
 12 16  1  0
 14 16  1  0
 15 20  2  0
 16 20  1  0
M  END
$$$$
