
     RDKit          3D

 44 49  0  0  0  0  0  0  0  0999 V2000
   12.4750   31.0589   15.3032 C   0  0  0  0  0  0  0  0  0  0  0  0
   13.5525   34.8581   11.8963 C   0  0  0  0  0  0  0  0  0  0  0  0
   13.8767   36.3649   15.3482 C   0  0  0  0  0  0  0  0  0  0  0  0
   16.8087   38.5464   14.6149 O   0  0  0  0  0  0  0  0  0  0  0  0
   14.2407   33.7932   11.1475 C   0  0  0  0  0  0  0  0  0  0  0  0
   11.2852   31.5432   15.8229 C   0  0  0  0  0  0  0  0  0  0  0  0
   10.9920   29.4421   15.3258 C   0  0  0  0  0  0  0  0  0  0  0  0
   11.4913   32.7648   16.4837 C   0  0  0  0  0  0  0  0  0  0  0  0
   16.3344   32.1930   11.7842 C   0  0  0  0  0  0  0  0  0  0  0  0
   15.6425   33.2625   10.9449 C   0  0  0  0  0  0  0  0  0  0  0  0
   15.8660   31.6997   15.1384 O   0  0  0  0  0  0  0  0  0  0  0  0
   12.3017   29.7340   15.0021 C   0  0  0  0  0  0  0  0  0  0  0  0
   12.7706   36.2216   16.3564 C   0  0  0  0  0  0  0  0  0  0  0  0
   16.5645   35.8838   12.5959 C   0  0  0  0  0  0  0  0  0  0  0  0
   11.8860   35.1094   16.3760 C   0  0  0  0  0  0  0  0  0  0  0  0
   13.2236   36.1565   14.0016 C   0  0  0  0  0  0  0  0  0  0  0  0
   12.2497   35.0405   11.6632 O   0  0  0  0  0  0  0  0  0  0  0  0
   10.5382   30.5704   15.9212 N   0  0  0  0  0  0  0  0  0  0  0  0
   16.9278   31.6005    9.5261 O   0  0  0  0  0  0  0  0  0  0  0  0
   17.4564   32.8208   12.7252 C   0  0  0  0  0  0  0  0  0  0  0  0
   12.1107   33.8624   15.6197 C   0  0  0  0  0  0  0  0  0  0  0  0
   16.5648   35.9025   11.3758 O   0  0  0  0  0  0  0  0  0  0  0  0
    9.7486   34.1625   17.1835 C   0  0  0  0  0  0  0  0  0  0  0  0
   13.2890   33.3350   14.9129 C   0  0  0  0  0  0  0  0  0  0  0  0
   14.1156   35.5713   13.0049 C   0  0  0  0  0  0  0  0  0  0  0  0
   15.3319   31.3273   12.7277 C   0  0  0  0  0  0  0  0  0  0  0  0
   12.5232   37.2072   17.2010 C   0  0  0  0  0  0  0  0  0  0  0  0
   14.3651   28.6573   14.0993 C   0  0  0  0  0  0  0  0  0  0  0  0
   11.5072   37.2432   17.9970 C   0  0  0  0  0  0  0  0  0  0  0  0
   17.8819   37.9105   12.6888 N   0  0  0  0  0  0  0  0  0  0  0  0
   17.8053   38.7605   13.7939 C   0  0  0  0  0  0  0  0  0  0  0  0
   14.7000   31.2819   14.2766 C   0  0  0  0  0  0  0  0  0  0  0  0
   15.2816   28.8162   12.8711 C   0  0  0  0  0  0  0  0  0  0  0  0
   10.7460   35.1808   17.1676 C   0  0  0  0  0  0  0  0  0  0  0  0
   12.9236   29.1538   13.8190 C   0  0  0  0  0  0  0  0  0  0  0  0
   16.2589   30.0206   12.9630 C   0  0  0  0  0  0  0  0  0  0  0  0
   17.8623   30.2474   10.9775 O   0  0  0  0  0  0  0  0  0  0  0  0
   13.4808   31.8974   14.9434 C   0  0  0  0  0  0  0  0  0  0  0  0
   10.0856   32.8954   16.6784 N   0  0  0  0  0  0  0  0  0  0  0  0
   17.7044   36.5178   13.2468 C   0  0  0  0  0  0  0  0  0  0  0  0
   12.2928   32.5968   17.7483 C   0  0  0  0  0  0  0  0  0  0  0  0
   10.5520   36.3161   17.9415 C   0  0  0  0  0  0  0  0  0  0  0  0
   17.0190   31.2401   10.7803 C   0  0  0  0  0  0  0  0  0  0  0  0
   15.4712   35.5142   13.4006 O   0  0  0  0  0  0  0  0  0  0  0  0
  1  6  1  0
  1 12  1  0
  1 38  1  0
  2  5  1  0
  2 17  1  0
  2 25  1  0
  3 13  1  0
  3 16  1  0
  4 31  1  0
  5 10  1  0
  6  8  1  0
  6 18  1  0
  7 12  1  0
  7 18  1  0
  8 21  1  0
  8 39  1  0
  8 41  1  0
  9 10  1  0
  9 20  1  0
  9 26  1  0
  9 43  1  0
 11 32  1  0
 12 35  1  0
 13 15  2  0
 13 27  1  0
 14 22  2  0
 14 40  1  0
 14 44  1  0
 15 21  1  0
 15 34  1  0
 16 25  1  0
 19 43  2  0
 21 24  1  0
 23 34  1  0
 23 39  1  0
 24 38  1  0
 25 44  1  0
 26 32  1  0
 26 36  1  0
 27 29  2  0
 28 33  1  0
 28 35  1  0
 29 42  1  0
 30 31  1  0
 30 40  1  0
 32 38  1  0
 33 36  1  0
 34 42  2  0
 37 43  1  0
M  END
$$$$
