
     RDKit          3D

 13 13  0  0  0  0  0  0  0  0999 V2000
   16.0633   35.3898   11.7805 C   0  0  0  0  0  0  0  0  0  0  0  0
   14.3141   35.9585   13.9099 N   0  0  0  0  0  0  0  0  0  0  0  0
   13.8187   35.3228   12.6155 C   0  0  0  0  0  0  0  0  0  0  0  0
   10.2734   32.3231   16.8634 C   0  0  0  0  0  0  0  0  0  0  0  0
   12.3370   35.8146   15.6488 O   0  0  0  0  0  0  0  0  0  0  0  0
   11.3854   32.2263   15.9885 C   0  0  0  0  0  0  0  0  0  0  0  0
   16.7558   36.0374   12.9088 C   0  0  0  0  0  0  0  0  0  0  0  0
   13.6730   35.7777   15.1503 C   0  0  0  0  0  0  0  0  0  0  0  0
   10.6174   34.7123   16.9987 C   0  0  0  0  0  0  0  0  0  0  0  0
   14.9841   34.3484   12.2061 C   0  0  0  0  0  0  0  0  0  0  0  0
    9.9173   33.5601   17.3961 N   0  0  0  0  0  0  0  0  0  0  0  0
   11.6665   34.6109   16.1158 C   0  0  0  0  0  0  0  0  0  0  0  0
   12.0629   33.3843   15.6314 C   0  0  0  0  0  0  0  0  0  0  0  0
  1  7  1  0
  1 10  1  0
  2  3  1  0
  2  8  1  0
  3 10  1  0
  4  6  2  0
  4 11  1  0
  5  8  1  0
  5 12  1  0
  6 13  1  0
  9 11  2  0
  9 12  1  0
 12 13  2  0
M  END
$$$$
