
     RDKit          3D

 12 13  0  0  0  0  0  0  0  0999 V2000
   12.7742   36.9397   15.6902 O   0  0  0  0  0  0  0  0  0  0  0  0
   12.7002   33.4487   14.8191 C   0  0  0  0  0  0  0  0  0  0  0  0
   13.6466   35.2782   13.5000 C   0  0  0  0  0  0  0  0  0  0  0  0
   11.6449   35.1680   16.6631 N   0  0  0  0  0  0  0  0  0  0  0  0
   11.3081   33.8468   16.7725 C   0  0  0  0  0  0  0  0  0  0  0  0
   12.4412   35.7058   15.6746 C   0  0  0  0  0  0  0  0  0  0  0  0
   11.8891   32.9720   15.8788 C   0  0  0  0  0  0  0  0  0  0  0  0
   14.1376   34.3878   12.5611 C   0  0  0  0  0  0  0  0  0  0  0  0
   10.4665   33.3995   17.6843 N   0  0  0  0  0  0  0  0  0  0  0  0
   13.3428   32.5428   13.9011 C   0  0  0  0  0  0  0  0  0  0  0  0
   12.9424   34.8285   14.6337 C   0  0  0  0  0  0  0  0  0  0  0  0
   14.0148   33.0019   12.7791 C   0  0  0  0  0  0  0  0  0  0  0  0
  1  6  2  0
  2  7  2  0
  2 10  1  0
  2 11  1  0
  3  8  2  0
  3 11  1  0
  4  5  1  0
  4  6  1  0
  5  7  1  0
  5  9  2  0
  6 11  1  0
  8 12  1  0
 10 12  2  0
M  END
$$$$
