
     RDKit          3D

 27 31  0  0  0  0  0  0  0  0999 V2000
   11.9348   35.1440   16.1671 C   0  0  0  0  0  0  0  0  0  0  0  0
   17.3367   33.2932   12.5153 C   0  0  0  0  0  0  0  0  0  0  0  0
   17.1477   32.0742   11.5762 C   0  0  0  0  0  0  0  0  0  0  0  0
   11.7730   31.3982   15.5026 C   0  0  0  0  0  0  0  0  0  0  0  0
   13.0927   36.0154   16.1801 C   0  0  0  0  0  0  0  0  0  0  0  0
   13.3859   34.9071   13.0918 N   0  0  0  0  0  0  0  0  0  0  0  0
   13.4286   36.3869   17.6004 C   0  0  0  0  0  0  0  0  0  0  0  0
   11.6017   33.7418   15.9716 C   0  0  0  0  0  0  0  0  0  0  0  0
   11.0385   37.0577   17.4448 C   0  0  0  0  0  0  0  0  0  0  0  0
   14.2144   35.3350   12.0874 C   0  0  0  0  0  0  0  0  0  0  0  0
   15.4706   32.0415   14.5958 C   0  0  0  0  0  0  0  0  0  0  0  0
    9.8972   32.1732   16.8309 N   0  0  0  0  0  0  0  0  0  0  0  0
   10.3594   33.4470   16.7292 C   0  0  0  0  0  0  0  0  0  0  0  0
   15.0757   33.2936   13.7245 C   0  0  0  0  0  0  0  0  0  0  0  0
    9.9248   34.6679   17.3315 C   0  0  0  0  0  0  0  0  0  0  0  0
   10.6179   31.1688   16.2354 N   0  0  0  0  0  0  0  0  0  0  0  0
   17.8908   34.5487   11.8651 C   0  0  0  0  0  0  0  0  0  0  0  0
   12.3369   37.3892   18.0166 C   0  0  0  0  0  0  0  0  0  0  0  0
   13.7575   36.0303   11.1260 N   0  0  0  0  0  0  0  0  0  0  0  0
   10.9071   35.6267   17.1568 C   0  0  0  0  0  0  0  0  0  0  0  0
   13.0368   33.3337   14.8714 N   0  0  0  0  0  0  0  0  0  0  0  0
   12.1887   32.7109   15.4065 C   0  0  0  0  0  0  0  0  0  0  0  0
   13.2276   36.9667   15.3020 O   0  0  0  0  0  0  0  0  0  0  0  0
   13.7981   33.8886   13.9470 C   0  0  0  0  0  0  0  0  0  0  0  0
   16.7854   35.5485   11.4058 C   0  0  0  0  0  0  0  0  0  0  0  0
   15.9417   33.8228   12.8087 C   0  0  0  0  0  0  0  0  0  0  0  0
   15.5731   34.9342   12.0621 N   0  0  0  0  0  0  0  0  0  0  0  0
  1  5  1  0
  1  8  1  0
  1 20  1  0
  2  3  1  0
  2 17  1  0
  2 26  1  0
  4 16  2  0
  4 22  1  0
  5  7  1  0
  5 23  1  0
  6 10  1  0
  6 24  2  0
  7 18  1  0
  8 13  1  0
  8 22  2  0
  9 18  1  0
  9 20  1  0
 10 19  2  0
 10 27  1  0
 11 14  1  0
 12 13  2  0
 12 16  1  0
 13 15  1  0
 14 24  1  0
 14 26  2  0
 15 20  1  0
 17 25  1  0
 21 22  1  0
 21 24  1  0
 25 27  1  0
 26 27  1  0
M  END
$$$$
