
     RDKit          3D

 12 13  0  0  0  0  0  0  0  0999 V2000
   13.3661   35.1990   12.9124 C   0  0  0  0  0  0  0  0  0  0  0  0
   12.9250   35.6114   14.0960 N   0  0  0  0  0  0  0  0  0  0  0  0
   12.1502   35.1999   16.4890 C   0  0  0  0  0  0  0  0  0  0  0  0
   12.6909   34.6927   15.0653 C   0  0  0  0  0  0  0  0  0  0  0  0
   10.7905   34.4473   16.9432 C   0  0  0  0  0  0  0  0  0  0  0  0
   13.8708   33.9467   12.7294 N   0  0  0  0  0  0  0  0  0  0  0  0
   11.2396   31.8708   16.1108 C   0  0  0  0  0  0  0  0  0  0  0  0
   13.6865   33.0357   13.6608 C   0  0  0  0  0  0  0  0  0  0  0  0
   10.8433   32.8808   17.3657 C   0  0  0  0  0  0  0  0  0  0  0  0
   12.9884   33.3116   14.7862 C   0  0  0  0  0  0  0  0  0  0  0  0
   13.3400   35.9503   11.7706 N   0  0  0  0  0  0  0  0  0  0  0  0
   12.6361   32.0620   15.6307 C   0  0  0  0  0  0  0  0  0  0  0  0
  1  2  1  0
  1  6  1  0
  1 11  2  0
  2  4  1  0
  3  4  1  0
  3  5  1  0
  4 10  2  0
  5  9  1  0
  6  8  2  0
  7  9  1  0
  7 12  1  0
  8 10  1  0
 10 12  1  0
M  END
$$$$
