
     RDKit          3D

 14 14  0  0  0  0  0  0  0  0999 V2000
   15.4996   33.0841   13.5127 C   0  0  0  0  0  0  0  0  0  0  0  0
   15.3840   35.3788   11.7000 O   0  0  0  0  0  0  0  0  0  0  0  0
   13.0360   33.0184   15.2428 C   0  0  0  0  0  0  0  0  0  0  0  0
   10.0221   34.0219   17.2093 C   0  0  0  0  0  0  0  0  0  0  0  0
   13.0293   35.4461   12.2771 C   0  0  0  0  0  0  0  0  0  0  0  0
   13.0471   35.4175   15.4771 N   0  0  0  0  0  0  0  0  0  0  0  0
   11.8919   35.3726   16.2005 C   0  0  0  0  0  0  0  0  0  0  0  0
   13.6129   34.2821   14.9443 C   0  0  0  0  0  0  0  0  0  0  0  0
   11.9178   33.0020   15.9708 C   0  0  0  0  0  0  0  0  0  0  0  0
   11.2692   34.1384   16.4471 C   0  0  0  0  0  0  0  0  0  0  0  0
    9.8791   32.6547   17.5235 O   0  0  0  0  0  0  0  0  0  0  0  0
   15.8749   32.1081   14.7791 C   0  0  0  0  0  0  0  0  0  0  0  0
   14.8280   34.4311   13.9708 C   0  0  0  0  0  0  0  0  0  0  0  0
   14.5201   35.2998   12.6880 C   0  0  0  0  0  0  0  0  0  0  0  0
  1 12  1  0
  1 13  1  0
  2 14  1  0
  3  8  1  0
  3  9  2  0
  4 10  1  0
  4 11  1  0
  5 14  1  0
  6  7  2  0
  6  8  1  0
  7 10  1  0
  8 13  1  0
  9 10  1  0
 13 14  1  0
M  END
$$$$
