
     RDKit          3D

 15 15  0  0  0  0  0  0  0  0999 V2000
   21.6225   19.1333   20.1899 C   0  0  0  0  0  0  0  0  0  0  0  0
   21.9391   22.7556   17.8269 C   0  0  0  0  0  0  0  0  0  0  0  0
   20.7653   22.7982   20.1416 C   0  0  0  0  0  0  0  0  0  0  0  0
   22.8623   23.8775   18.3666 C   0  0  0  0  0  0  0  0  0  0  0  0
   22.4468   18.3780   20.8783 N   0  0  0  0  0  0  0  0  0  0  0  0
   21.9006   20.5643   19.8256 C   0  0  0  0  0  0  0  0  0  0  0  0
   21.9847   23.3162   20.7099 C   0  0  0  0  0  0  0  0  0  0  0  0
   22.4170   21.3810   18.5766 C   0  0  0  0  0  0  0  0  0  0  0  0
   20.6342   23.8672   22.5620 O   0  0  0  0  0  0  0  0  0  0  0  0
   23.1106   23.8016   19.8200 C   0  0  0  0  0  0  0  0  0  0  0  0
   19.6268   23.6100   19.6676 C   0  0  0  0  0  0  0  0  0  0  0  0
   20.5884   21.3162   20.2299 C   0  0  0  0  0  0  0  0  0  0  0  0
   22.9289   24.1539   22.7724 C   0  0  0  0  0  0  0  0  0  0  0  0
   23.6434   24.3084   17.3707 O   0  0  0  0  0  0  0  0  0  0  0  0
   21.8011   23.9548   21.9917 C   0  0  0  0  0  0  0  0  0  0  0  0
  1  5  2  0
  1  6  1  0
  2  4  1  0
  2  8  1  0
  3  7  1  0
  3 11  1  0
  3 12  1  0
  4 10  1  0
  4 14  1  0
  6  8  1  0
  6 12  1  0
  7 10  1  0
  7 15  1  0
  9 15  1  0
 13 15  1  0
M  END
$$$$
