
     RDKit          3D

 23 27  0  0  0  0  0  0  0  0999 V2000
   22.8924   24.6054   19.8208 C   0  0  0  0  0  0  0  0  0  0  0  0
   24.2074   25.3813   19.4181 C   0  0  0  0  0  0  0  0  0  0  0  0
   21.9409   25.1701   22.0890 O   0  0  0  0  0  0  0  0  0  0  0  0
   24.9931   24.5336   18.3654 C   0  0  0  0  0  0  0  0  0  0  0  0
   23.8493   24.3173   17.2633 C   0  0  0  0  0  0  0  0  0  0  0  0
   23.0001   20.4803   21.5575 C   0  0  0  0  0  0  0  0  0  0  0  0
   22.3982   21.8228   20.9006 C   0  0  0  0  0  0  0  0  0  0  0  0
   19.8173   24.7410   21.5819 O   0  0  0  0  0  0  0  0  0  0  0  0
   21.2132   22.8212   21.3437 C   0  0  0  0  0  0  0  0  0  0  0  0
   22.3792   17.9772   21.0453 O   0  0  0  0  0  0  0  0  0  0  0  0
   20.0683   22.3370   20.6349 O   0  0  0  0  0  0  0  0  0  0  0  0
   23.2178   23.1265   20.3278 C   0  0  0  0  0  0  0  0  0  0  0  0
   22.0866   21.1818   19.4831 C   0  0  0  0  0  0  0  0  0  0  0  0
   25.2502   23.1114   18.9169 C   0  0  0  0  0  0  0  0  0  0  0  0
   23.6008   21.0034   19.0151 C   0  0  0  0  0  0  0  0  0  0  0  0
   23.1034   25.6849   17.1967 C   0  0  0  0  0  0  0  0  0  0  0  0
   22.6472   20.3422   22.9248 O   0  0  0  0  0  0  0  0  0  0  0  0
   23.0612   23.0771   17.7572 C   0  0  0  0  0  0  0  0  0  0  0  0
   21.6195   19.7480   19.6837 C   0  0  0  0  0  0  0  0  0  0  0  0
   23.8297   22.5249   19.0251 C   0  0  0  0  0  0  0  0  0  0  0  0
   23.6950   26.5350   18.4481 C   0  0  0  0  0  0  0  0  0  0  0  0
   21.0353   24.3409   21.6130 C   0  0  0  0  0  0  0  0  0  0  0  0
   22.5654   19.2311   20.7873 C   0  0  0  0  0  0  0  0  0  0  0  0
  1  2  1  0
  1 12  1  0
  2  4  1  0
  2 21  1  0
  3 22  2  0
  4  5  1  0
  4 14  1  0
  5 16  1  0
  5 18  1  0
  6  7  1  0
  6 17  1  0
  6 23  1  0
  7  9  1  0
  7 12  1  0
  7 13  1  0
  8 22  1  0
  9 11  1  0
  9 22  1  0
 10 23  1  0
 12 20  1  0
 13 15  1  0
 13 19  1  0
 14 20  1  0
 15 20  1  0
 16 21  1  0
 18 20  1  0
 19 23  1  0
M  END
$$$$
