
     RDKit          3D

 27 29  0  0  0  0  0  0  0  0999 V2000
   21.4402   25.9295   21.8437 C   0  0  0  0  0  0  0  0  0  0  0  0
   25.4329   24.2805   18.8395 C   0  0  0  0  0  0  0  0  0  0  0  0
   22.0666   18.6234   20.6020 C   0  0  0  0  0  0  0  0  0  0  0  0
   19.1133   24.2475   21.0021 O   0  0  0  0  0  0  0  0  0  0  0  0
   25.0251   21.5898   22.2791 O   0  0  0  0  0  0  0  0  0  0  0  0
   19.9821   23.0677   22.5935 O   0  0  0  0  0  0  0  0  0  0  0  0
   24.2359   23.0752   20.6302 C   0  0  0  0  0  0  0  0  0  0  0  0
   21.7977   24.3755   21.8169 C   0  0  0  0  0  0  0  0  0  0  0  0
   21.8229   22.9657   19.0732 C   0  0  0  0  0  0  0  0  0  0  0  0
   20.7582   22.8076   20.2463 C   0  0  0  0  0  0  0  0  0  0  0  0
   26.5261   24.1145   19.8812 C   0  0  0  0  0  0  0  0  0  0  0  0
   23.1247   23.3678   18.4088 C   0  0  0  0  0  0  0  0  0  0  0  0
   25.6649   21.0235   19.9943 C   0  0  0  0  0  0  0  0  0  0  0  0
   22.5470   19.7386   21.5190 C   0  0  0  0  0  0  0  0  0  0  0  0
   23.1271   24.2152   17.2083 C   0  0  0  0  0  0  0  0  0  0  0  0
   20.3216   23.6556   21.4313 C   0  0  0  0  0  0  0  0  0  0  0  0
   22.9047   23.4043   21.2654 C   0  0  0  0  0  0  0  0  0  0  0  0
   20.8495   18.1323   21.1436 O   0  0  0  0  0  0  0  0  0  0  0  0
   22.1300   22.3762   20.4057 C   0  0  0  0  0  0  0  0  0  0  0  0
   25.8271   25.2489   17.8303 C   0  0  0  0  0  0  0  0  0  0  0  0
   23.4032   25.6678   17.4399 C   0  0  0  0  0  0  0  0  0  0  0  0
   22.5583   23.7325   16.1410 O   0  0  0  0  0  0  0  0  0  0  0  0
   22.4169   20.9675   20.6943 C   0  0  0  0  0  0  0  0  0  0  0  0
   24.9294   21.7870   20.9629 C   0  0  0  0  0  0  0  0  0  0  0  0
   24.3017   23.4244   19.1826 C   0  0  0  0  0  0  0  0  0  0  0  0
   24.8270   26.0382   17.1220 C   0  0  0  0  0  0  0  0  0  0  0  0
   20.7359   22.7600   17.8751 C   0  0  0  0  0  0  0  0  0  0  0  0
  1  8  1  0
  2 11  1  0
  2 20  1  0
  2 25  1  0
  3 14  1  0
  3 18  1  0
  4 16  1  0
  5 24  1  0
  6 16  1  0
  7 17  1  0
  7 24  1  0
  7 25  1  0
  8 16  1  0
  8 17  1  0
  9 12  1  0
  9 19  1  0
  9 27  1  0
 10 16  1  0
 10 19  1  0
 12 15  1  0
 12 25  1  0
 13 24  1  0
 14 23  1  0
 15 21  1  0
 15 22  1  0
 17 19  1  0
 19 23  1  0
 20 26  1  0
 21 26  1  0
M  END
$$$$
