
     RDKit          3D

 12 13  0  0  0  0  0  0  0  0999 V2000
   48.2253   54.9038    1.8202 O   0  0  0  0  0  0  0  0  0  0  0  0
   47.5230   55.0089   -2.2422 O   0  0  0  0  0  0  0  0  0  0  0  0
   47.3085   50.7194   -0.9784 C   0  0  0  0  0  0  0  0  0  0  0  0
   47.0442   54.0682   -0.0139 C   0  0  0  0  0  0  0  0  0  0  0  0
   47.4883   56.3944    0.1965 O   0  0  0  0  0  0  0  0  0  0  0  0
   46.4577   51.8149   -0.4248 C   0  0  0  0  0  0  0  0  0  0  0  0
   47.5106   53.8752   -1.4782 C   0  0  0  0  0  0  0  0  0  0  0  0
   47.4459   52.6796    0.4684 C   0  0  0  0  0  0  0  0  0  0  0  0
   47.9371   51.5919   -2.0809 O   0  0  0  0  0  0  0  0  0  0  0  0
   45.6561   54.1676    0.0334 O   0  0  0  0  0  0  0  0  0  0  0  0
   47.7306   55.1974    0.6266 C   0  0  0  0  0  0  0  0  0  0  0  0
   46.8114   52.5989   -1.9120 C   0  0  0  0  0  0  0  0  0  0  0  0
  1 11  2  0
  2  7  1  0
  3  6  1  0
  3  9  1  0
  4  7  1  0
  4  8  1  0
  4 10  1  0
  4 11  1  0
  5 11  1  0
  6  8  1  0
  6 12  1  0
  7 12  1  0
  9 12  1  0
M  END
$$$$
