
     RDKit          3D

 11 13  0  0  0  0  0  0  0  0999 V2000
   49.1879   54.0113   -0.5056 C   0  0  0  0  0  0  0  0  0  0  0  0
   47.6438   51.8723   -0.7271 C   0  0  0  0  0  0  0  0  0  0  0  0
   48.3821   52.0461    0.6309 C   0  0  0  0  0  0  0  0  0  0  0  0
   48.0783   54.0216   -1.6594 C   0  0  0  0  0  0  0  0  0  0  0  0
   48.4481   53.5578    0.8518 C   0  0  0  0  0  0  0  0  0  0  0  0
   48.7070   51.6706   -1.7078 O   0  0  0  0  0  0  0  0  0  0  0  0
   46.9925   54.0098    0.4666 C   0  0  0  0  0  0  0  0  0  0  0  0
   45.7553   53.2340   -1.4685 O   0  0  0  0  0  0  0  0  0  0  0  0
   47.2788   55.4665    0.0324 C   0  0  0  0  0  0  0  0  0  0  0  0
   47.4620   55.4129   -1.4953 C   0  0  0  0  0  0  0  0  0  0  0  0
   46.9492   53.1832   -0.8718 C   0  0  0  0  0  0  0  0  0  0  0  0
  1  4  1  0
  1  5  1  0
  2  3  1  0
  2  6  1  0
  2 11  1  0
  3  5  1  0
  4 10  1  0
  4 11  1  0
  5  7  1  0
  7  9  1  0
  7 11  1  0
  8 11  1  0
  9 10  1  0
M  END
$$$$
