
     RDKit          3D

 11 11  0  0  0  0  0  0  0  0999 V2000
   47.2592   50.3796    0.9235 O   0  0  0  0  0  0  0  0  0  0  0  0
   47.5447   54.4356   -2.0711 C   0  0  0  0  0  0  0  0  0  0  0  0
   47.4118   52.5276   -0.5433 C   0  0  0  0  0  0  0  0  0  0  0  0
   45.6703   50.6116   -1.0079 N   0  0  0  0  0  0  0  0  0  0  0  0
   47.5102   53.1363   -1.7745 C   0  0  0  0  0  0  0  0  0  0  0  0
   47.4657   53.2486    0.5943 C   0  0  0  0  0  0  0  0  0  0  0  0
   47.5243   55.5697   -1.3566 C   0  0  0  0  0  0  0  0  0  0  0  0
   47.5128   55.6648    0.0294 C   0  0  0  0  0  0  0  0  0  0  0  0
   47.1831   50.8498   -0.4497 P   0  0  0  0  0  0  0  0  0  0  0  0
   48.2663   50.1812   -1.3514 O   0  0  0  0  0  0  0  0  0  0  0  0
   47.5114   54.5343    0.8417 C   0  0  0  0  0  0  0  0  0  0  0  0
  1  9  1  0
  2  5  1  0
  2  7  2  0
  3  5  2  0
  3  6  1  0
  3  9  1  0
  4  9  1  0
  6 11  2  0
  7  8  1  0
  8 11  1  0
  9 10  1  0
M  END
$$$$
