
     RDKit          3D

 19 21  0  0  0  0  0  0  0  0999 V2000
   10.3527   57.8950   80.0740 C   0  0  0  0  0  0  0  0  0  0  0  0
   14.2114   54.4341   84.7429 N   0  0  0  0  0  0  0  0  0  0  0  0
   12.7690   60.4165   79.0676 C   0  0  0  0  0  0  0  0  0  0  0  0
   12.6655   56.6600   81.0339 C   0  0  0  0  0  0  0  0  0  0  0  0
   10.3353   56.8111   80.9765 C   0  0  0  0  0  0  0  0  0  0  0  0
   13.9333   58.5652   79.9750 C   0  0  0  0  0  0  0  0  0  0  0  0
   15.4107   56.2688   83.9982 O   0  0  0  0  0  0  0  0  0  0  0  0
   11.6092   58.3214   79.7423 C   0  0  0  0  0  0  0  0  0  0  0  0
   13.8062   61.0428   81.1642 C   0  0  0  0  0  0  0  0  0  0  0  0
   13.9089   56.0318   81.4774 C   0  0  0  0  0  0  0  0  0  0  0  0
   11.7893   59.4003   78.8956 O   0  0  0  0  0  0  0  0  0  0  0  0
   11.4414   56.1860   81.4261 N   0  0  0  0  0  0  0  0  0  0  0  0
   15.1511   57.9790   80.4661 C   0  0  0  0  0  0  0  0  0  0  0  0
   15.0921   56.5285   80.8312 C   0  0  0  0  0  0  0  0  0  0  0  0
   12.7245   57.7908   80.2481 N   0  0  0  0  0  0  0  0  0  0  0  0
   13.9521   55.0240   82.4929 C   0  0  0  0  0  0  0  0  0  0  0  0
   13.7400   60.0499   80.0908 C   0  0  0  0  0  0  0  0  0  0  0  0
   12.6461   61.0760   82.0274 O   0  0  0  0  0  0  0  0  0  0  0  0
   14.8267   55.1590   83.6841 C   0  0  0  0  0  0  0  0  0  0  0  0
  1  5  1  0
  1  8  1  0
  2 19  1  0
  3 11  1  0
  3 17  1  0
  4 10  2  0
  4 12  1  0
  4 15  1  0
  5 12  2  0
  6 13  1  0
  6 15  1  0
  6 17  1  0
  7 19  2  0
  8 11  1  0
  8 15  1  0
  9 17  1  0
  9 18  1  0
 10 14  1  0
 10 16  1  0
 13 14  1  0
 16 19  1  0
M  END
$$$$
