
     RDKit          3D

 27 29  0  0  0  0  0  0  0  0999 V2000
   10.6626   59.5603   79.3988 O   0  0  0  0  0  0  0  0  0  0  0  0
   15.6236   56.0065   82.7806 C   0  0  0  0  0  0  0  0  0  0  0  0
   11.1255   56.7778   80.9235 C   0  0  0  0  0  0  0  0  0  0  0  0
   13.5034   59.2978   78.4185 O   0  0  0  0  0  0  0  0  0  0  0  0
   15.4193   60.0809   79.6882 C   0  0  0  0  0  0  0  0  0  0  0  0
   13.9104   54.7111   83.6734 C   0  0  0  0  0  0  0  0  0  0  0  0
   12.9750   61.3715   79.5632 C   0  0  0  0  0  0  0  0  0  0  0  0
   15.2122   55.1058   83.7055 N   0  0  0  0  0  0  0  0  0  0  0  0
   14.0663   60.3922   79.1568 C   0  0  0  0  0  0  0  0  0  0  0  0
   10.3918   58.1419   81.0988 C   0  0  0  0  0  0  0  0  0  0  0  0
    9.5369   58.5200   79.8275 C   0  0  0  0  0  0  0  0  0  0  0  0
   11.5023   59.1903   80.4891 C   0  0  0  0  0  0  0  0  0  0  0  0
   13.4018   56.1691   81.8953 C   0  0  0  0  0  0  0  0  0  0  0  0
   16.5507   57.4993   80.6016 O   0  0  0  0  0  0  0  0  0  0  0  0
   17.0942   58.1213   79.5002 C   0  0  0  0  0  0  0  0  0  0  0  0
   15.1944   57.5613   80.8891 C   0  0  0  0  0  0  0  0  0  0  0  0
   13.0301   55.2518   82.7855 N   0  0  0  0  0  0  0  0  0  0  0  0
   11.7098   60.2966   81.4797 C   0  0  0  0  0  0  0  0  0  0  0  0
   10.6474   60.4937   82.3466 O   0  0  0  0  0  0  0  0  0  0  0  0
    8.8229   57.3405   79.2230 C   0  0  0  0  0  0  0  0  0  0  0  0
   13.4764   53.7719   84.5194 N   0  0  0  0  0  0  0  0  0  0  0  0
   12.4855   56.7355   81.0380 O   0  0  0  0  0  0  0  0  0  0  0  0
   10.4410   55.6978   80.7728 O   0  0  0  0  0  0  0  0  0  0  0  0
   16.3738   59.2442   78.8413 C   0  0  0  0  0  0  0  0  0  0  0  0
    9.4086   57.8637   82.1138 O   0  0  0  0  0  0  0  0  0  0  0  0
   12.7250   61.3545   81.1178 C   0  0  0  0  0  0  0  0  0  0  0  0
   14.7644   56.5799   81.8585 C   0  0  0  0  0  0  0  0  0  0  0  0
  1 11  1  0
  1 12  1  0
  2  8  2  0
  2 27  1  0
  3 10  1  0
  3 22  1  0
  3 23  2  0
  4  9  1  0
  5  9  1  0
  5 24  1  0
  6  8  1  0
  6 17  1  0
  6 21  2  0
  7  9  1  0
  7 26  1  0
 10 11  1  0
 10 12  1  0
 10 25  1  0
 11 20  1  0
 12 18  1  0
 13 17  2  0
 13 22  1  0
 13 27  1  0
 14 15  1  0
 14 16  1  0
 15 24  1  0
 16 27  1  0
 18 19  1  0
 18 26  1  0
M  END
$$$$
