
     RDKit          3D

 21 23  0  0  0  0  0  0  0  0999 V2000
   12.9035   55.9145   81.6226 N   0  0  0  0  0  0  0  0  0  0  0  0
   10.3729   55.4508   80.7487 C   0  0  0  0  0  0  0  0  0  0  0  0
    8.9839   55.2475   80.4428 C   0  0  0  0  0  0  0  0  0  0  0  0
   14.6210   57.2253   80.1012 C   0  0  0  0  0  0  0  0  0  0  0  0
   10.9941   56.5763   80.3417 C   0  0  0  0  0  0  0  0  0  0  0  0
   12.2840   54.7606   81.8721 C   0  0  0  0  0  0  0  0  0  0  0  0
   12.0598   61.7498   81.0687 N   0  0  0  0  0  0  0  0  0  0  0  0
   12.8113   60.0961   79.4654 C   0  0  0  0  0  0  0  0  0  0  0  0
   11.0190   54.4950   81.4567 N   0  0  0  0  0  0  0  0  0  0  0  0
   13.1842   57.7621   80.1410 C   0  0  0  0  0  0  0  0  0  0  0  0
   15.0455   58.4247   79.3456 C   0  0  0  0  0  0  0  0  0  0  0  0
   14.0970   56.3203   82.2907 C   0  0  0  0  0  0  0  0  0  0  0  0
   13.4570   58.7946   79.2209 C   0  0  0  0  0  0  0  0  0  0  0  0
   15.7453   59.8442   79.2378 S   0  0  0  0  0  0  0  0  0  0  0  0
   15.1366   56.8522   81.3912 C   0  0  0  0  0  0  0  0  0  0  0  0
   11.5380   60.0314   79.1235 O   0  0  0  0  0  0  0  0  0  0  0  0
   14.5165   55.9893   83.5194 O   0  0  0  0  0  0  0  0  0  0  0  0
   13.1185   60.8785   80.6899 C   0  0  0  0  0  0  0  0  0  0  0  0
   12.3324   56.7345   80.6970 C   0  0  0  0  0  0  0  0  0  0  0  0
   11.5618   62.7078   80.0989 C   0  0  0  0  0  0  0  0  0  0  0  0
   16.3169   57.1148   81.7641 O   0  0  0  0  0  0  0  0  0  0  0  0
  1  6  1  0
  1 12  1  0
  1 19  1  0
  2  3  1  0
  2  5  2  0
  2  9  1  0
  4 10  1  0
  4 11  1  0
  4 15  1  0
  5 19  1  0
  6  9  2  0
  7 18  1  0
  7 20  1  0
  8 13  1  0
  8 16  1  0
  8 18  1  0
 10 13  1  0
 10 19  1  0
 11 13  1  0
 11 14  1  0
 12 15  1  0
 12 17  2  0
 15 21  2  0
M  END
$$$$
