
     RDKit          3D

 22 22  0  0  0  0  0  0  0  0999 V2000
   15.6286   55.9066   82.4332 C   0  0  0  0  0  0  0  0  0  0  0  0
   13.0846   60.2155   79.8945 C   0  0  0  0  0  0  0  0  0  0  0  0
    9.3311   55.2200   80.0524 C   0  0  0  0  0  0  0  0  0  0  0  0
    9.1374   56.6332   82.1856 C   0  0  0  0  0  0  0  0  0  0  0  0
   14.5760   56.0973   81.5104 C   0  0  0  0  0  0  0  0  0  0  0  0
   11.7283   61.1258   82.0104 C   0  0  0  0  0  0  0  0  0  0  0  0
   12.1833   59.9567   81.0840 C   0  0  0  0  0  0  0  0  0  0  0  0
   11.0576   59.0159   80.8324 C   0  0  0  0  0  0  0  0  0  0  0  0
    9.9914   55.9453   81.1714 N   0  0  0  0  0  0  0  0  0  0  0  0
   13.1924   54.7357   83.0005 C   0  0  0  0  0  0  0  0  0  0  0  0
   15.4521   55.1828   83.6133 C   0  0  0  0  0  0  0  0  0  0  0  0
   11.3664   57.6875   80.3000 O   0  0  0  0  0  0  0  0  0  0  0  0
   13.3681   55.4734   81.8270 C   0  0  0  0  0  0  0  0  0  0  0  0
   14.2207   54.5900   83.8990 C   0  0  0  0  0  0  0  0  0  0  0  0
   12.5613   59.3526   78.7953 O   0  0  0  0  0  0  0  0  0  0  0  0
   13.8810   59.1467   79.3431 N   0  0  0  0  0  0  0  0  0  0  0  0
   14.7003   56.8877   80.2441 C   0  0  0  0  0  0  0  0  0  0  0  0
   12.3543   55.6183   80.9515 O   0  0  0  0  0  0  0  0  0  0  0  0
   14.9042   58.3162   79.9822 C   0  0  0  0  0  0  0  0  0  0  0  0
   15.9907   58.9022   80.1786 O   0  0  0  0  0  0  0  0  0  0  0  0
   11.2643   56.4205   80.9473 C   0  0  0  0  0  0  0  0  0  0  0  0
   11.0364   60.4986   83.1583 O   0  0  0  0  0  0  0  0  0  0  0  0
  1  5  2  0
  1 11  1  0
  2  7  1  0
  2 15  1  0
  3  9  1  0
  4  9  1  0
  5 13  1  0
  5 17  1  0
  6  7  1  0
  6 22  1  0
  7  8  1  0
  8 12  1  0
  9 21  1  0
 10 13  2  0
 10 14  1  0
 11 14  2  0
 12 21  1  0
 13 18  1  0
 16 19  1  0
 17 19  1  0
 18 21  1  0
 19 20  2  0
M  END
$$$$
