
     RDKit          3D

 30 32  0  0  0  0  0  0  0  0999 V2000
    4.3676   -4.0306    3.4729 C   0  0  0  0  0  0  0  0  0  0  0  0
    6.6072    3.3530    2.6540 O   0  0  0  0  0  0  0  0  0  0  0  0
    4.8967    0.0304    1.7843 C   0  0  0  0  0  0  0  0  0  0  0  0
    7.4317   -0.6291    1.3751 O   0  0  0  0  0  0  0  0  0  0  0  0
    8.8145   -3.0557    1.5066 C   0  0  0  0  0  0  0  0  0  0  0  0
    7.4645   -2.8984    2.1576 C   0  0  0  0  0  0  0  0  0  0  0  0
    2.7751    1.0286    0.6028 C   0  0  0  0  0  0  0  0  0  0  0  0
    9.0682   -2.3991    0.1212 C   0  0  0  0  0  0  0  0  0  0  0  0
    5.7220    1.0499    3.8912 C   0  0  0  0  0  0  0  0  0  0  0  0
    3.6456    0.1262    1.1769 C   0  0  0  0  0  0  0  0  0  0  0  0
    3.4163    3.3526    0.6104 O   0  0  0  0  0  0  0  0  0  0  0  0
    9.9821   -1.1479    0.0636 C   0  0  0  0  0  0  0  0  0  0  0  0
    2.5436    2.3955    0.2986 C   0  0  0  0  0  0  0  0  0  0  0  0
    1.7687   -1.1051    0.5125 O   0  0  0  0  0  0  0  0  0  0  0  0
    5.2059    4.6425    3.8229 O   0  0  0  0  0  0  0  0  0  0  0  0
    5.0927    2.3427    5.8895 C   0  0  0  0  0  0  0  0  0  0  0  0
    5.7221    3.5009    3.5410 C   0  0  0  0  0  0  0  0  0  0  0  0
    0.6364    1.1064   -0.3596 O   0  0  0  0  0  0  0  0  0  0  0  0
    3.0634   -1.2500    1.2215 C   0  0  0  0  0  0  0  0  0  0  0  0
   11.0797   -1.3684    0.5635 O   0  0  0  0  0  0  0  0  0  0  0  0
    5.6814    1.0160    2.4564 O   0  0  0  0  0  0  0  0  0  0  0  0
    3.5167   -2.8073    3.2162 C   0  0  0  0  0  0  0  0  0  0  0  0
    5.2012    2.3357    4.4017 C   0  0  0  0  0  0  0  0  0  0  0  0
    6.7195   -1.6941    1.8513 C   0  0  0  0  0  0  0  0  0  0  0  0
    9.6214   -0.1041   -0.5090 O   0  0  0  0  0  0  0  0  0  0  0  0
    3.9787   -2.0669    1.9875 C   0  0  0  0  0  0  0  0  0  0  0  0
    5.2775   -1.3381    2.0237 C   0  0  0  0  0  0  0  0  0  0  0  0
    0.2063    3.3963   -0.2990 C   0  0  0  0  0  0  0  0  0  0  0  0
    1.2975    2.5434   -0.2511 N   0  0  0  0  0  0  0  0  0  0  0  0
    1.6106    0.3056    0.1695 C   0  0  0  0  0  0  0  0  0  0  0  0
  1 22  1  0
  2 17  2  0
  3 10  1  0
  3 21  1  0
  3 27  1  0
  4 24  1  0
  5  6  1  0
  5  8  1  0
  6 24  1  0
  7 10  1  0
  7 13  1  0
  7 30  2  0
  8 12  1  0
  9 21  1  0
  9 23  1  0
 10 19  2  0
 11 13  2  0
 12 20  2  0
 12 25  1  0
 13 29  1  0
 14 19  1  0
 14 30  1  0
 15 17  1  0
 16 23  1  0
 17 23  1  0
 18 29  1  0
 18 30  1  0
 19 26  1  0
 22 26  1  0
 24 27  1  0
 26 27  1  0
 28 29  1  0
M  END
$$$$
