
     RDKit          3D

 24 26  0  0  0  0  0  0  0  0999 V2000
    5.7062   -2.0395    2.5281 C   0  0  0  0  0  0  0  0  0  0  0  0
    3.1412   -1.7508    1.5881 C   0  0  0  0  0  0  0  0  0  0  0  0
    2.0700   -1.0010    0.7882 C   0  0  0  0  0  0  0  0  0  0  0  0
    7.5275   -2.1493    0.8654 O   0  0  0  0  0  0  0  0  0  0  0  0
   -0.2572    0.6220   -0.3435 O   0  0  0  0  0  0  0  0  0  0  0  0
    4.6361   -1.4255    1.5446 C   0  0  0  0  0  0  0  0  0  0  0  0
    0.5800    3.5114   -0.4508 N   0  0  0  0  0  0  0  0  0  0  0  0
    2.6533    2.5014    0.0920 N   0  0  0  0  0  0  0  0  0  0  0  0
    2.1058    0.2500   -0.0356 C   0  0  0  0  0  0  0  0  0  0  0  0
    3.1692    1.2233    0.3753 C   0  0  0  0  0  0  0  0  0  0  0  0
    5.9550    0.6955    2.2850 C   0  0  0  0  0  0  0  0  0  0  0  0
    7.0809   -1.5138    2.0290 C   0  0  0  0  0  0  0  0  0  0  0  0
    6.4074    3.3424    2.7649 O   0  0  0  0  0  0  0  0  0  0  0  0
    8.5778    2.9578    2.6057 O   0  0  0  0  0  0  0  0  0  0  0  0
    8.0323   -0.4559    2.6079 C   0  0  0  0  0  0  0  0  0  0  0  0
    1.2675    2.3968   -0.2318 C   0  0  0  0  0  0  0  0  0  0  0  0
    7.2973    1.0244    2.8119 C   0  0  0  0  0  0  0  0  0  0  0  0
    7.4197    2.6031    2.8020 C   0  0  0  0  0  0  0  0  0  0  0  0
    4.8487    0.0217    1.6143 C   0  0  0  0  0  0  0  0  0  0  0  0
    3.1027    3.7608    0.2174 O   0  0  0  0  0  0  0  0  0  0  0  0
    8.9581   -2.3904    0.6124 C   0  0  0  0  0  0  0  0  0  0  0  0
    0.9777    1.0063   -0.4719 C   0  0  0  0  0  0  0  0  0  0  0  0
    3.6645    0.9143    1.7355 C   0  0  0  0  0  0  0  0  0  0  0  0
    9.4086   -3.5893    1.4279 C   0  0  0  0  0  0  0  0  0  0  0  0
  1  6  1  0
  1 12  1  0
  2  3  2  0
  2  6  1  0
  3  9  1  0
  4 12  1  0
  4 21  1  0
  5 22  1  0
  6 19  1  0
  7 16  2  0
  8 10  1  0
  8 16  1  0
  8 20  1  0
  9 10  1  0
  9 22  1  0
 10 23  1  0
 11 17  2  0
 11 19  2  0
 12 15  1  0
 13 18  2  0
 14 18  1  0
 15 17  1  0
 16 22  1  0
 17 18  1  0
 19 23  1  0
 21 24  1  0
M  END
$$$$
