
     RDKit          3D

 22 22  0  0  0  0  0  0  0  0999 V2000
    1.6446    2.3156    0.2669 C   0  0  0  0  0  0  0  0  0  0  0  0
    6.3942   -1.7846    1.9420 C   0  0  0  0  0  0  0  0  0  0  0  0
    8.4359   -2.9914    1.4678 C   0  0  0  0  0  0  0  0  0  0  0  0
    5.8091    3.4021    3.1119 C   0  0  0  0  0  0  0  0  0  0  0  0
    3.3950   -1.1620    0.5288 C   0  0  0  0  0  0  0  0  0  0  0  0
    2.5911    1.1199    0.5328 C   0  0  0  0  0  0  0  0  0  0  0  0
    7.6348   -2.2132    1.8172 C   0  0  0  0  0  0  0  0  0  0  0  0
   -0.3675    1.1331   -0.2437 O   0  0  0  0  0  0  0  0  0  0  0  0
    0.9616    1.7527   -1.9213 N   0  0  0  0  0  0  0  0  0  0  0  0
    4.5462   -0.9148    1.0093 C   0  0  0  0  0  0  0  0  0  0  0  0
    4.5297    5.0987    2.1357 O   0  0  0  0  0  0  0  0  0  0  0  0
    5.8363    3.5261    4.3399 O   0  0  0  0  0  0  0  0  0  0  0  0
    2.3446   -0.2382    0.1921 C   0  0  0  0  0  0  0  0  0  0  0  0
    3.7710    2.8812    1.5604 C   0  0  0  0  0  0  0  0  0  0  0  0
    2.6706    3.4982    0.7232 O   0  0  0  0  0  0  0  0  0  0  0  0
    6.7480    2.9200    2.3975 O   0  0  0  0  0  0  0  0  0  0  0  0
    3.6199    1.5145    1.1609 N   0  0  0  0  0  0  0  0  0  0  0  0
    0.6020    1.7555   -0.6628 C   0  0  0  0  0  0  0  0  0  0  0  0
    5.5808   -1.2495    1.3975 C   0  0  0  0  0  0  0  0  0  0  0  0
    9.8181   -3.6341    1.0462 O   0  0  0  0  0  0  0  0  0  0  0  0
    8.2031   -3.0641    1.8663 C   0  0  0  0  0  0  0  0  0  0  0  0
    4.5324    3.7992    2.4192 C   0  0  0  0  0  0  0  0  0  0  0  0
  1  6  1  0
  1 15  1  0
  1 18  1  0
  2  7  1  0
  2 19  2  0
  3 20  1  0
  3 21  1  0
  4 12  2  0
  4 16  1  0
  4 22  1  0
  5 10  1  0
  5 13  2  3
  6 13  1  0
  6 17  2  0
  7 21  1  0
  8 18  2  0
  9 18  1  0
 10 19  2  0
 11 22  1  0
 14 15  1  0
 14 17  1  0
 14 22  1  0
M  END
$$$$
