
     RDKit          3D

 23 26  0  0  0  0  0  0  0  0999 V2000
    5.9988    2.4750    2.6793 C   0  0  0  0  0  0  0  0  0  0  0  0
    2.6733   -0.6014    0.6276 C   0  0  0  0  0  0  0  0  0  0  0  0
    4.8442   -1.4263    1.3717 C   0  0  0  0  0  0  0  0  0  0  0  0
    7.3678    2.3665    2.8669 N   0  0  0  0  0  0  0  0  0  0  0  0
    8.9450   -0.4575    1.7578 C   0  0  0  0  0  0  0  0  0  0  0  0
    8.0798    3.4123    3.2213 O   0  0  0  0  0  0  0  0  0  0  0  0
    1.8653    0.5128    0.3138 C   0  0  0  0  0  0  0  0  0  0  0  0
    3.9264   -0.3401    1.1983 C   0  0  0  0  0  0  0  0  0  0  0  0
    2.3029    1.8197    0.5803 C   0  0  0  0  0  0  0  0  0  0  0  0
    1.4013    2.7284    0.0178 N   0  0  0  0  0  0  0  0  0  0  0  0
    7.9320    0.5705    2.4199 C   0  0  0  0  0  0  0  0  0  0  0  0
    5.5959    1.2146    2.1293 C   0  0  0  0  0  0  0  0  0  0  0  0
    0.3933    1.9832   -0.4742 C   0  0  0  0  0  0  0  0  0  0  0  0
    7.1900   -2.2766    1.5676 C   0  0  0  0  0  0  0  0  0  0  0  0
    3.4611    2.0524    1.2932 C   0  0  0  0  0  0  0  0  0  0  0  0
    5.3269    3.4928    3.0306 O   0  0  0  0  0  0  0  0  0  0  0  0
    6.1800   -1.1533    1.6997 C   0  0  0  0  0  0  0  0  0  0  0  0
    6.5577    0.1706    2.0963 C   0  0  0  0  0  0  0  0  0  0  0  0
   -0.6866    2.5440   -1.0742 N   0  0  0  0  0  0  0  0  0  0  0  0
    9.2178   -2.7779    0.4265 C   0  0  0  0  0  0  0  0  0  0  0  0
    8.4396   -1.7213    1.0984 N   0  0  0  0  0  0  0  0  0  0  0  0
    4.3180    0.9821    1.5646 C   0  0  0  0  0  0  0  0  0  0  0  0
    0.5802    0.6862   -0.2865 N   0  0  0  0  0  0  0  0  0  0  0  0
  1  4  1  0
  1 12  1  0
  1 16  2  0
  2  7  1  0
  2  8  2  0
  3  8  1  0
  3 17  2  0
  4  6  1  0
  5 11  1  0
  5 21  1  0
  7  9  1  0
  7 23  1  0
  8 22  1  0
  9 10  1  0
  9 15  2  0
 10 13  1  0
 11 18  1  0
 12 18  1  0
 12 22  2  0
 13 19  2  0
 13 23  1  0
 14 17  1  0
 14 21  1  0
 15 22  1  0
 17 18  1  0
 20 21  1  0
M  END
$$$$
