
     RDKit          3D

 27 29  0  0  0  0  0  0  0  0999 V2000
   36.9348   45.4065   15.5157 C   0  0  0  0  0  0  0  0  0  0  0  0
   31.8138   44.5210   17.2915 C   0  0  0  0  0  0  0  0  0  0  0  0
   33.2951   44.2973   17.6869 C   0  0  0  0  0  0  0  0  0  0  0  0
   26.0892   41.7254   20.5896 N   0  0  0  0  0  0  0  0  0  0  0  0
   27.5819   40.7056   17.9974 O   0  0  0  0  0  0  0  0  0  0  0  0
   27.9821   41.4586   18.8811 C   0  0  0  0  0  0  0  0  0  0  0  0
   31.2387   42.0128   17.7130 C   0  0  0  0  0  0  0  0  0  0  0  0
   29.3015   41.6192   19.1085 O   0  0  0  0  0  0  0  0  0  0  0  0
   40.9291   46.2928   17.9978 C   0  0  0  0  0  0  0  0  0  0  0  0
   39.6742   45.4661   18.0005 C   0  0  0  0  0  0  0  0  0  0  0  0
   31.2915   43.1787   16.6562 C   0  0  0  0  0  0  0  0  0  0  0  0
   31.5144   43.4641   15.1213 C   0  0  0  0  0  0  0  0  0  0  0  0
   39.1942   46.3986   15.4138 C   0  0  0  0  0  0  0  0  0  0  0  0
   35.9160   43.6009   17.8837 O   0  0  0  0  0  0  0  0  0  0  0  0
   35.0121   42.7919   18.7729 C   0  0  0  0  0  0  0  0  0  0  0  0
   32.4900   42.0266   18.6001 C   0  0  0  0  0  0  0  0  0  0  0  0
   27.0538   42.4491   19.6141 C   0  0  0  0  0  0  0  0  0  0  0  0
   37.9224   44.6248   16.3981 C   0  0  0  0  0  0  0  0  0  0  0  0
   30.2764   40.9585   18.2547 C   0  0  0  0  0  0  0  0  0  0  0  0
   33.6714   42.8074   18.0119 C   0  0  0  0  0  0  0  0  0  0  0  0
   35.7493   41.4802   19.0380 C   0  0  0  0  0  0  0  0  0  0  0  0
   31.1248   39.9715   19.0745 C   0  0  0  0  0  0  0  0  0  0  0  0
   35.5345   43.6301   16.4216 C   0  0  0  0  0  0  0  0  0  0  0  0
   39.0944   45.4809   16.6166 C   0  0  0  0  0  0  0  0  0  0  0  0
   32.4831   40.7251   19.3958 C   0  0  0  0  0  0  0  0  0  0  0  0
   37.8497   46.2405   14.6372 C   0  0  0  0  0  0  0  0  0  0  0  0
   35.4760   45.0796   15.9007 C   0  0  0  0  0  0  0  0  0  0  0  0
  1 18  1  0
  1 26  1  0
  1 27  1  0
  2  3  1  0
  2 11  1  0
  3 20  1  0
  4 17  1  0
  5  6  2  0
  6  8  1  0
  6 17  1  0
  7 11  1  0
  7 16  1  0
  7 19  1  0
  8 19  1  0
  9 10  1  0
 10 24  1  0
 11 12  1  0
 13 24  1  0
 13 26  1  0
 14 15  1  0
 14 23  1  0
 15 20  1  0
 15 21  1  0
 16 20  1  0
 16 25  1  0
 18 24  1  0
 19 22  1  0
 22 25  1  0
 23 27  1  0
M  END
$$$$
