
     RDKit          3D

 29 29  0  0  0  0  0  0  0  0999 V2000
   26.6268   39.9997   20.6354 C   0  0  0  0  0  0  0  0  0  0  0  0
   29.5517   42.9358   16.0700 C   0  0  0  0  0  0  0  0  0  0  0  0
   36.3525   42.2897   18.8884 C   0  0  0  0  0  0  0  0  0  0  0  0
   34.7638   45.7109   17.3725 O   0  0  0  0  0  0  0  0  0  0  0  0
   33.9940   44.6097   16.7094 C   0  0  0  0  0  0  0  0  0  0  0  0
   26.8230   42.5165   19.9398 C   0  0  0  0  0  0  0  0  0  0  0  0
   29.3585   40.0548   18.6763 C   0  0  0  0  0  0  0  0  0  0  0  0
   32.0577   45.6461   15.4295 O   0  0  0  0  0  0  0  0  0  0  0  0
   29.8089   41.7270   16.9978 C   0  0  0  0  0  0  0  0  0  0  0  0
   32.5153   45.1406   16.7190 C   0  0  0  0  0  0  0  0  0  0  0  0
   37.3782   44.2499   18.2394 C   0  0  0  0  0  0  0  0  0  0  0  0
   29.7056   38.9322   19.0980 O   0  0  0  0  0  0  0  0  0  0  0  0
   39.6917   45.4811   18.1209 C   0  0  0  0  0  0  0  0  0  0  0  0
   33.5743   42.7826   18.6414 C   0  0  0  0  0  0  0  0  0  0  0  0
   35.6527   41.1649   19.5434 C   0  0  0  0  0  0  0  0  0  0  0  0
   30.7350   44.9846   15.0607 C   0  0  0  0  0  0  0  0  0  0  0  0
   30.2929   40.8905   18.0763 N   0  0  0  0  0  0  0  0  0  0  0  0
   30.8262   43.6672   15.7523 C   0  0  0  0  0  0  0  0  0  0  0  0
   32.6077   41.7289   19.2980 C   0  0  0  0  0  0  0  0  0  0  0  0
   27.3249   41.0373   19.7801 C   0  0  0  0  0  0  0  0  0  0  0  0
   40.2135   44.5287   19.1463 C   0  0  0  0  0  0  0  0  0  0  0  0
   34.4641   43.3119   17.4650 C   0  0  0  0  0  0  0  0  0  0  0  0
   36.0732   43.3433   17.7350 C   0  0  0  0  0  0  0  0  0  0  0  0
   38.4519   45.0734   17.4391 C   0  0  0  0  0  0  0  0  0  0  0  0
   31.7289   42.8539   15.0619 O   0  0  0  0  0  0  0  0  0  0  0  0
   40.7003   46.2633   17.3566 C   0  0  0  0  0  0  0  0  0  0  0  0
   36.6549   42.7489   16.2884 C   0  0  0  0  0  0  0  0  0  0  0  0
   28.0133   40.5983   18.6299 C   0  0  0  0  0  0  0  0  0  0  0  0
   31.4675   44.0986   17.1055 C   0  0  0  0  0  0  0  0  0  0  0  0
  1 20  1  0
  2  9  1  0
  2 18  1  0
  3 15  1  0
  3 23  1  0
  4  5  1  0
  5 10  1  0
  5 22  1  0
  6 20  1  0
  7 12  2  0
  7 17  1  0
  7 28  1  0
  8 10  1  0
  8 16  1  0
  9 17  1  0
 10 29  1  0
 11 23  1  0
 11 24  2  3
 13 21  1  0
 13 24  1  0
 13 26  1  0
 14 19  1  0
 14 22  1  0
 16 18  1  0
 18 25  1  0
 18 29  1  0
 20 28  1  0
 22 23  1  0
 23 27  1  0
M  END
$$$$
