
     RDKit          3D

 38 42  0  0  0  0  0  0  0  0999 V2000
   36.3412   46.1146   14.5237 C   0  0  0  0  0  0  0  0  0  0  0  0
   32.7549   40.0811   18.1292 O   0  0  0  0  0  0  0  0  0  0  0  0
   40.3855   45.6164   18.8229 C   0  0  0  0  0  0  0  0  0  0  0  0
   38.3987   44.1717   20.1606 C   0  0  0  0  0  0  0  0  0  0  0  0
   30.2621   39.9271   19.0543 C   0  0  0  0  0  0  0  0  0  0  0  0
   34.1555   42.8220   18.9165 C   0  0  0  0  0  0  0  0  0  0  0  0
   38.2045   44.6226   18.9251 C   0  0  0  0  0  0  0  0  0  0  0  0
   35.6278   42.4041   17.0330 C   0  0  0  0  0  0  0  0  0  0  0  0
   36.2665   47.4385   12.4663 C   0  0  0  0  0  0  0  0  0  0  0  0
   39.6086   44.4693   20.7797 C   0  0  0  0  0  0  0  0  0  0  0  0
   36.4869   44.5782   16.5058 C   0  0  0  0  0  0  0  0  0  0  0  0
   27.4949   41.5510   19.0288 N   0  0  0  0  0  0  0  0  0  0  0  0
   30.8331   41.6683   17.4466 C   0  0  0  0  0  0  0  0  0  0  0  0
   35.0012   45.8964   17.7599 O   0  0  0  0  0  0  0  0  0  0  0  0
   27.2428   40.7179   20.1309 C   0  0  0  0  0  0  0  0  0  0  0  0
   31.6940   39.5708   18.9351 C   0  0  0  0  0  0  0  0  0  0  0  0
   31.9137   42.1809   18.3643 N   0  0  0  0  0  0  0  0  0  0  0  0
   31.9319   43.6758   18.3836 C   0  0  0  0  0  0  0  0  0  0  0  0
   26.2566   40.1704   20.9253 C   0  0  0  0  0  0  0  0  0  0  0  0
   36.9878   46.9258   13.6059 C   0  0  0  0  0  0  0  0  0  0  0  0
   38.3531   46.0191   15.8356 C   0  0  0  0  0  0  0  0  0  0  0  0
   34.9198   43.4806   17.7650 N   0  0  0  0  0  0  0  0  0  0  0  0
   38.9965   46.7965   14.8950 C   0  0  0  0  0  0  0  0  0  0  0  0
   28.3331   41.2163   17.9598 C   0  0  0  0  0  0  0  0  0  0  0  0
   38.9860   45.6710   16.9454 O   0  0  0  0  0  0  0  0  0  0  0  0
   38.2951   47.2295   13.7747 C   0  0  0  0  0  0  0  0  0  0  0  0
   33.1445   44.0050   19.2360 C   0  0  0  0  0  0  0  0  0  0  0  0
   32.0417   38.5478   19.6661 O   0  0  0  0  0  0  0  0  0  0  0  0
   29.3548   38.9837   19.7030 C   0  0  0  0  0  0  0  0  0  0  0  0
   40.5998   45.1557   20.0970 C   0  0  0  0  0  0  0  0  0  0  0  0
   37.0129   45.5953   15.6233 C   0  0  0  0  0  0  0  0  0  0  0  0
   35.3197   44.7759   17.3488 C   0  0  0  0  0  0  0  0  0  0  0  0
   36.8663   43.1271   16.4952 C   0  0  0  0  0  0  0  0  0  0  0  0
   29.7465   41.0816   18.2716 C   0  0  0  0  0  0  0  0  0  0  0  0
   27.0876   42.9729   19.2264 C   0  0  0  0  0  0  0  0  0  0  0  0
   39.1417   45.3101   18.2153 C   0  0  0  0  0  0  0  0  0  0  0  0
   33.3033   41.5599   18.3628 C   0  0  0  0  0  0  0  0  0  0  0  0
   27.8470   40.9240   16.8575 O   0  0  0  0  0  0  0  0  0  0  0  0
  1 20  2  0
  1 31  1  0
  2 16  1  0
  2 37  1  0
  3 30  2  0
  3 36  1  0
  4  7  1  0
  4 10  2  0
  5 16  1  0
  5 29  1  0
  5 34  1  0
  6 22  1  0
  6 27  1  0
  6 37  1  0
  7 36  2  0
  8 22  1  0
  8 33  1  0
  9 20  1  0
 10 30  1  0
 11 31  1  0
 11 32  1  0
 11 33  1  0
 12 15  1  0
 12 24  1  0
 12 35  1  0
 13 17  1  0
 13 34  1  0
 14 32  2  0
 15 19  1  0
 16 28  2  0
 17 18  1  0
 17 37  1  0
 18 27  1  0
 20 26  1  0
 21 23  1  0
 21 25  1  0
 21 31  2  0
 22 32  1  0
 23 26  2  0
 24 34  1  0
 24 38  2  0
 25 36  1  0
M  END
$$$$
