
     RDKit          3D

 22 23  0  0  0  0  0  0  0  0999 V2000
   23.0657   24.0395   20.4370 C   0  0  0  0  0  0  0  0  0  0  0  0
   18.5837   23.5319   20.5571 O   0  0  0  0  0  0  0  0  0  0  0  0
   25.3182   22.3833   16.8125 C   0  0  0  0  0  0  0  0  0  0  0  0
   21.6062   25.7056   21.5190 C   0  0  0  0  0  0  0  0  0  0  0  0
   20.6476   21.1032   19.3753 C   0  0  0  0  0  0  0  0  0  0  0  0
   23.7133   26.4410   20.5036 C   0  0  0  0  0  0  0  0  0  0  0  0
   22.5345   26.7404   21.2744 C   0  0  0  0  0  0  0  0  0  0  0  0
   20.8173   23.3484   20.7633 C   0  0  0  0  0  0  0  0  0  0  0  0
   21.6017   19.0485   20.7843 C   0  0  0  0  0  0  0  0  0  0  0  0
   23.9936   23.0935   21.7467 C   0  0  0  0  0  0  0  0  0  0  0  0
   22.4422   19.7942   21.6659 N   0  0  0  0  0  0  0  0  0  0  0  0
   20.5678   19.8822   20.1643 C   0  0  0  0  0  0  0  0  0  0  0  0
   22.6525   22.8100   19.5662 C   0  0  0  0  0  0  0  0  0  0  0  0
   19.7424   23.5017   21.1598 C   0  0  0  0  0  0  0  0  0  0  0  0
   21.4147   22.3945   19.8895 C   0  0  0  0  0  0  0  0  0  0  0  0
   24.1975   23.3156   17.4215 C   0  0  0  0  0  0  0  0  0  0  0  0
   21.7746   24.4165   21.0309 C   0  0  0  0  0  0  0  0  0  0  0  0
   19.6126   23.5337   22.4423 O   0  0  0  0  0  0  0  0  0  0  0  0
   21.7162   17.7871   20.6975 O   0  0  0  0  0  0  0  0  0  0  0  0
   22.8877   22.8696   17.0056 C   0  0  0  0  0  0  0  0  0  0  0  0
   23.6186   22.2792   18.4119 C   0  0  0  0  0  0  0  0  0  0  0  0
   23.9636   25.1598   20.1415 C   0  0  0  0  0  0  0  0  0  0  0  0
  1 10  1  0
  1 13  1  0
  1 17  1  0
  1 22  1  0
  2 14  2  0
  3 16  1  0
  4  7  2  0
  4 17  1  0
  5 12  1  0
  5 15  1  0
  6  7  1  0
  6 22  2  0
  8 14  1  0
  8 15  2  0
  8 17  1  0
  9 11  1  0
  9 12  1  0
  9 19  2  0
 13 15  1  0
 13 21  1  0
 14 18  1  0
 16 20  1  0
 16 21  1  0
M  END
$$$$
