
     RDKit          3D

 18 18  0  0  0  0  0  0  0  0999 V2000
   21.3425   18.9403   21.3568 O   0  0  0  0  0  0  0  0  0  0  0  0
   23.4292   21.0760   22.4341 C   0  0  0  0  0  0  0  0  0  0  0  0
   22.8897   21.5547   21.1785 N   0  0  0  0  0  0  0  0  0  0  0  0
   23.0564   23.1480   16.9622 C   0  0  0  0  0  0  0  0  0  0  0  0
   23.8571   19.8053   22.2078 O   0  0  0  0  0  0  0  0  0  0  0  0
   21.0982   20.0030   20.3100 C   0  0  0  0  0  0  0  0  0  0  0  0
   20.6467   25.1031   21.6732 O   0  0  0  0  0  0  0  0  0  0  0  0
   23.1597   23.6775   19.7089 C   0  0  0  0  0  0  0  0  0  0  0  0
   20.2975   23.8023   21.4023 C   0  0  0  0  0  0  0  0  0  0  0  0
   21.7029   23.3253   19.3192 C   0  0  0  0  0  0  0  0  0  0  0  0
   21.8617   22.7214   17.8554 C   0  0  0  0  0  0  0  0  0  0  0  0
   19.5982   22.2038   19.7940 O   0  0  0  0  0  0  0  0  0  0  0  0
   24.2533   22.2035   16.8617 C   0  0  0  0  0  0  0  0  0  0  0  0
   23.7824   22.3431   20.3145 C   0  0  0  0  0  0  0  0  0  0  0  0
   20.7306   22.7530   20.4255 C   0  0  0  0  0  0  0  0  0  0  0  0
   23.4545   24.5798   17.0116 C   0  0  0  0  0  0  0  0  0  0  0  0
   19.5474   23.6136   22.2679 O   0  0  0  0  0  0  0  0  0  0  0  0
   21.4982   21.4144   20.8273 C   0  0  0  0  0  0  0  0  0  0  0  0
  1  6  1  0
  2  3  1  0
  2  5  1  0
  3 14  1  0
  3 18  1  0
  4 11  1  0
  4 13  1  0
  4 16  1  0
  6 18  1  0
  7  9  2  0
  8 10  1  0
  8 14  1  0
  9 15  1  0
  9 17  1  0
 10 11  1  0
 10 15  1  0
 12 15  1  0
 15 18  1  0
M  END
$$$$
