
     RDKit          3D

 23 24  0  0  0  0  0  0  0  0999 V2000
   23.2954   24.0144   18.4248 C   0  0  0  0  0  0  0  0  0  0  0  0
   22.7582   20.9008   20.1657 C   0  0  0  0  0  0  0  0  0  0  0  0
   21.6251   23.0677   20.5885 C   0  0  0  0  0  0  0  0  0  0  0  0
   21.7336   17.7664   20.7255 O   0  0  0  0  0  0  0  0  0  0  0  0
   21.3272   23.8225   23.0951 C   0  0  0  0  0  0  0  0  0  0  0  0
   24.0644   24.7127   17.2979 C   0  0  0  0  0  0  0  0  0  0  0  0
   23.8932   26.2472   17.5824 C   0  0  0  0  0  0  0  0  0  0  0  0
   23.1523   19.7279   20.9627 C   0  0  0  0  0  0  0  0  0  0  0  0
   22.6800   18.6856   20.3716 C   0  0  0  0  0  0  0  0  0  0  0  0
   19.4817   23.7119   21.0706 C   0  0  0  0  0  0  0  0  0  0  0  0
   21.2796   20.7716   19.6061 C   0  0  0  0  0  0  0  0  0  0  0  0
   23.8361   19.8554   21.9698 O   0  0  0  0  0  0  0  0  0  0  0  0
   25.8726   22.9428   16.9384 C   0  0  0  0  0  0  0  0  0  0  0  0
   22.9831   22.3389   20.6849 C   0  0  0  0  0  0  0  0  0  0  0  0
   19.3432   22.7282   19.9965 C   0  0  0  0  0  0  0  0  0  0  0  0
   25.5638   24.3688   17.3017 C   0  0  0  0  0  0  0  0  0  0  0  0
   20.7263   23.5515   21.7632 C   0  0  0  0  0  0  0  0  0  0  0  0
   18.5241   24.6033   21.1295 O   0  0  0  0  0  0  0  0  0  0  0  0
   24.6998   22.0537   16.7162 C   0  0  0  0  0  0  0  0  0  0  0  0
   23.6494   22.5093   21.9553 O   0  0  0  0  0  0  0  0  0  0  0  0
   23.9046   23.0486   19.5547 C   0  0  0  0  0  0  0  0  0  0  0  0
   20.6202   22.1627   19.7491 C   0  0  0  0  0  0  0  0  0  0  0  0
   20.5180   23.9139   24.3090 N   0  0  0  0  0  0  0  0  0  0  0  0
  1  6  1  0
  1 21  2  3
  2  8  1  0
  2 11  1  0
  2 14  1  0
  3 14  1  0
  3 17  1  0
  3 22  1  0
  4  9  1  0
  5 17  1  0
  5 23  1  0
  6  7  1  0
  6 16  1  0
  8  9  1  0
  8 12  2  0
 10 15  1  0
 10 17  1  0
 10 18  1  0
 11 22  1  0
 13 16  1  0
 13 19  1  0
 14 20  1  0
 14 21  1  0
 15 22  1  0
M  END
$$$$
