
     RDKit          3D

 25 27  0  0  0  0  0  0  0  0999 V2000
   19.8303   23.6361   21.3144 C   0  0  0  0  0  0  0  0  0  0  0  0
   18.7258   23.4531   20.6704 O   0  0  0  0  0  0  0  0  0  0  0  0
   23.8384   22.9215   16.7603 C   0  0  0  0  0  0  0  0  0  0  0  0
   24.5737   21.2649   18.0363 C   0  0  0  0  0  0  0  0  0  0  0  0
   23.1869   20.5698   22.5709 O   0  0  0  0  0  0  0  0  0  0  0  0
   22.3189   23.7326   19.7360 C   0  0  0  0  0  0  0  0  0  0  0  0
   23.7542   28.2968   19.9142 C   0  0  0  0  0  0  0  0  0  0  0  0
   19.5680   23.5796   22.5000 O   0  0  0  0  0  0  0  0  0  0  0  0
   23.3673   25.0157   17.8473 C   0  0  0  0  0  0  0  0  0  0  0  0
   24.1742   27.9428   18.4593 C   0  0  0  0  0  0  0  0  0  0  0  0
   22.9021   23.6779   17.3195 C   0  0  0  0  0  0  0  0  0  0  0  0
   22.9260   20.8145   19.9409 N   0  0  0  0  0  0  0  0  0  0  0  0
   21.6828   19.1994   21.0448 C   0  0  0  0  0  0  0  0  0  0  0  0
   21.6533   17.8638   20.6966 O   0  0  0  0  0  0  0  0  0  0  0  0
   22.7704   25.9576   20.5644 C   0  0  0  0  0  0  0  0  0  0  0  0
   23.2465   27.2994   20.8474 C   0  0  0  0  0  0  0  0  0  0  0  0
   21.7912   25.3000   21.5068 C   0  0  0  0  0  0  0  0  0  0  0  0
   23.1462   27.6706   22.1390 O   0  0  0  0  0  0  0  0  0  0  0  0
   24.9840   22.2070   16.9611 C   0  0  0  0  0  0  0  0  0  0  0  0
   23.0196   25.0725   19.3916 C   0  0  0  0  0  0  0  0  0  0  0  0
   21.5932   20.0423   19.7350 C   0  0  0  0  0  0  0  0  0  0  0  0
   23.1994   21.5120   18.6388 C   0  0  0  0  0  0  0  0  0  0  0  0
   23.1610   19.5982   21.4557 C   0  0  0  0  0  0  0  0  0  0  0  0
   21.2438   23.9883   20.8347 C   0  0  0  0  0  0  0  0  0  0  0  0
   22.5053   22.8343   18.5507 C   0  0  0  0  0  0  0  0  0  0  0  0
  1  2  2  0
  1  8  1  0
  1 24  1  0
  3 11  1  0
  3 19  1  0
  4 19  1  0
  4 22  1  0
  5 23  1  0
  6 20  1  0
  6 24  1  0
  6 25  1  0
  7 10  1  0
  7 16  2  3
  9 11  1  0
  9 20  1  0
 11 25  1  0
 12 21  1  0
 12 22  1  0
 13 14  1  0
 13 21  1  0
 13 23  1  0
 15 16  1  0
 15 17  1  0
 15 20  1  0
 16 18  1  0
 17 24  1  0
 22 25  1  0
M  END
$$$$
