
     RDKit          3D

 29 30  0  0  0  0  0  0  0  0999 V2000
   24.0121   24.5087   20.6279 C   0  0  0  0  0  0  0  0  0  0  0  0
   22.9222   25.5559   17.1110 O   0  0  0  0  0  0  0  0  0  0  0  0
   21.4398   24.4244   15.6310 C   0  0  0  0  0  0  0  0  0  0  0  0
   25.2809   25.2911   17.5693 C   0  0  0  0  0  0  0  0  0  0  0  0
   26.0253   19.2651   19.9682 C   0  0  0  0  0  0  0  0  0  0  0  0
   22.3833   19.2444   21.1189 C   0  0  0  0  0  0  0  0  0  0  0  0
   20.5814   23.0487   20.4843 C   0  0  0  0  0  0  0  0  0  0  0  0
   21.0648   19.0054   20.4701 C   0  0  0  0  0  0  0  0  0  0  0  0
   20.0023   21.1142   19.2193 C   0  0  0  0  0  0  0  0  0  0  0  0
   22.2384   24.2847   22.4828 C   0  0  0  0  0  0  0  0  0  0  0  0
   18.7957   24.4685   21.3199 O   0  0  0  0  0  0  0  0  0  0  0  0
   22.0819   23.1121   16.4929 C   0  0  0  0  0  0  0  0  0  0  0  0
   24.8297   23.8994   17.9115 C   0  0  0  0  0  0  0  0  0  0  0  0
   20.9752   23.8635   22.6541 N   0  0  0  0  0  0  0  0  0  0  0  0
   24.0305   26.2982   17.7188 C   0  0  0  0  0  0  0  0  0  0  0  0
   20.0513   23.6934   21.5796 C   0  0  0  0  0  0  0  0  0  0  0  0
   23.8936   23.7658   19.2213 C   0  0  0  0  0  0  0  0  0  0  0  0
   22.5960   24.3540   16.5432 C   0  0  0  0  0  0  0  0  0  0  0  0
   26.4614   21.6459   20.3131 C   0  0  0  0  0  0  0  0  0  0  0  0
   25.4473   22.7867   17.0812 C   0  0  0  0  0  0  0  0  0  0  0  0
   26.5400   20.5397   19.2297 C   0  0  0  0  0  0  0  0  0  0  0  0
   20.2937   18.1277   20.8145 O   0  0  0  0  0  0  0  0  0  0  0  0
   20.6609   20.2612   19.7954 N   0  0  0  0  0  0  0  0  0  0  0  0
   19.6601   22.1877   19.7455 N   0  0  0  0  0  0  0  0  0  0  0  0
   21.8885   23.3091   20.2962 C   0  0  0  0  0  0  0  0  0  0  0  0
   22.7708   22.9713   19.2116 C   0  0  0  0  0  0  0  0  0  0  0  0
   24.6701   19.4689   20.4684 C   0  0  0  0  0  0  0  0  0  0  0  0
   22.7211   24.1023   21.2394 C   0  0  0  0  0  0  0  0  0  0  0  0
   23.5184   18.6082   20.5311 C   0  0  0  0  0  0  0  0  0  0  0  0
  1 17  1  0
  1 28  1  0
  2 15  1  0
  2 18  1  0
  3 18  1  0
  4 13  1  0
  4 15  1  0
  5 21  1  0
  5 27  1  0
  6  8  1  0
  6 29  1  0
  7 16  1  0
  7 24  1  0
  7 25  2  0
  8 22  2  0
  8 23  1  0
  9 23  1  0
  9 24  1  0
 10 14  1  0
 10 28  1  0
 11 16  2  0
 12 18  1  0
 13 17  1  0
 13 20  1  0
 14 16  1  0
 17 26  1  0
 19 21  1  0
 25 26  1  0
 25 28  1  0
 27 29  1  0
M  END
$$$$
