
     RDKit          3D

 13 13  0  0  0  0  0  0  0  0999 V2000
   22.1948   22.2223   20.5662 O   0  0  0  0  0  0  0  0  0  0  0  0
   22.6118   18.6414   19.5897 O   0  0  0  0  0  0  0  0  0  0  0  0
   23.0878   21.7465   18.1643 C   0  0  0  0  0  0  0  0  0  0  0  0
   20.8500   22.8505   20.4471 C   0  0  0  0  0  0  0  0  0  0  0  0
   22.9914   19.7995   20.2146 C   0  0  0  0  0  0  0  0  0  0  0  0
   20.2521   23.6192   21.5501 C   0  0  0  0  0  0  0  0  0  0  0  0
   24.3568   22.4299   17.1512 C   0  0  0  0  0  0  0  0  0  0  0  0
   19.0715   24.1003   21.4717 O   0  0  0  0  0  0  0  0  0  0  0  0
   23.5036   19.8177   21.5688 O   0  0  0  0  0  0  0  0  0  0  0  0
   20.7957   24.1602   22.8365 C   0  0  0  0  0  0  0  0  0  0  0  0
   22.7559   21.1773   19.6222 C   0  0  0  0  0  0  0  0  0  0  0  0
   22.0181   22.9687   17.3894 S   0  0  0  0  0  0  0  0  0  0  0  0
   23.5019   23.8415   17.0510 C   0  0  0  0  0  0  0  0  0  0  0  0
  1  4  1  0
  1 11  1  0
  2  5  2  0
  3  7  1  0
  3 11  1  0
  3 12  1  0
  4  6  1  0
  5  9  1  0
  5 11  1  0
  6  8  2  0
  6 10  1  0
  7 13  1  0
 12 13  1  0
M  END
$$$$
