
     RDKit          3D

 24 24  0  0  0  0  0  0  0  0999 V2000
   22.4661   21.9683   19.6037 C   0  0  0  0  0  0  0  0  0  0  0  0
   26.0608   22.6951   16.9881 C   0  0  0  0  0  0  0  0  0  0  0  0
   20.6918   23.3143   21.6393 C   0  0  0  0  0  0  0  0  0  0  0  0
   22.7081   22.9791   16.8302 C   0  0  0  0  0  0  0  0  0  0  0  0
   24.1916   19.6630   21.8084 C   0  0  0  0  0  0  0  0  0  0  0  0
   23.2999   22.4816   18.2307 C   0  0  0  0  0  0  0  0  0  0  0  0
   21.7280   20.7512   20.7593 C   0  0  0  0  0  0  0  0  0  0  0  0
   23.2804   22.7484   20.7989 C   0  0  0  0  0  0  0  0  0  0  0  0
   22.2948   18.4417   20.8498 C   0  0  0  0  0  0  0  0  0  0  0  0
   22.6573   19.7862   21.3948 C   0  0  0  0  0  0  0  0  0  0  0  0
   20.4238   20.6828   19.9134 C   0  0  0  0  0  0  0  0  0  0  0  0
   24.2332   25.0056   21.1115 C   0  0  0  0  0  0  0  0  0  0  0  0
   25.8266   22.6467   18.4534 C   0  0  0  0  0  0  0  0  0  0  0  0
   20.9016   21.7465   18.8127 C   0  0  0  0  0  0  0  0  0  0  0  0
   23.1598   25.6125   21.8522 C   0  0  0  0  0  0  0  0  0  0  0  0
   19.1184   23.1063   21.0106 C   0  0  0  0  0  0  0  0  0  0  0  0
   22.2934   23.0143   22.0685 C   0  0  0  0  0  0  0  0  0  0  0  0
   24.1884   23.8481   20.2380 C   0  0  0  0  0  0  0  0  0  0  0  0
   24.4518   23.4834   18.7007 C   0  0  0  0  0  0  0  0  0  0  0  0
   24.5302   24.7301   17.8441 O   0  0  0  0  0  0  0  0  0  0  0  0
   23.5581   25.6428   17.4958 C   0  0  0  0  0  0  0  0  0  0  0  0
   23.8146   26.8186   17.8650 O   0  0  0  0  0  0  0  0  0  0  0  0
   21.2388   18.2064   20.1411 O   0  0  0  0  0  0  0  0  0  0  0  0
   21.8631   25.9154   21.4198 O   0  0  0  0  0  0  0  0  0  0  0  0
  1  6  1  0
  1  8  1  0
  1 14  1  0
  2 13  1  0
  3 16  1  0
  3 17  1  0
  4  6  1  0
  5 10  1  0
  6 19  1  0
  7 10  1  0
  7 11  1  0
  8 17  1  0
  8 18  1  0
  9 10  2  3
  9 23  1  0
 11 14  1  0
 12 15  1  0
 12 18  1  0
 13 19  1  0
 15 24  1  0
 18 19  1  0
 19 20  1  0
 20 21  1  0
 21 22  1  0
M  END
$$$$
