
     RDKit          3D

 16 15  0  0  0  0  0  0  0  0999 V2000
   21.6684   17.8096   20.7304 O   0  0  0  0  0  0  0  0  0  0  0  0
   25.1221   24.4955   17.3881 C   0  0  0  0  0  0  0  0  0  0  0  0
   22.7838   25.1263   20.4079 C   0  0  0  0  0  0  0  0  0  0  0  0
   18.7439   23.2706   20.6041 O   0  0  0  0  0  0  0  0  0  0  0  0
   23.9541   22.2836   17.3542 C   0  0  0  0  0  0  0  0  0  0  0  0
   21.5916   23.7863   22.6206 C   0  0  0  0  0  0  0  0  0  0  0  0
   19.9380   22.5249   20.3822 C   0  0  0  0  0  0  0  0  0  0  0  0
   21.9921   23.1142   18.7991 O   0  0  0  0  0  0  0  0  0  0  0  0
   21.0794   23.2162   21.2183 C   0  0  0  0  0  0  0  0  0  0  0  0
   23.8171   23.7786   17.0205 C   0  0  0  0  0  0  0  0  0  0  0  0
   20.2152   21.2747   19.4782 C   0  0  0  0  0  0  0  0  0  0  0  0
   21.8215   19.1667   20.2458 C   0  0  0  0  0  0  0  0  0  0  0  0
   22.7245   21.9169   18.3204 C   0  0  0  0  0  0  0  0  0  0  0  0
   20.6094   23.8346   23.5366 O   0  0  0  0  0  0  0  0  0  0  0  0
   22.0353   23.7633   20.0953 C   0  0  0  0  0  0  0  0  0  0  0  0
   20.5813   19.9344   20.2080 C   0  0  0  0  0  0  0  0  0  0  0  0
  1 12  1  0
  2 10  1  0
  3 15  1  0
  4  7  1  0
  5 10  1  0
  5 13  1  0
  6  9  1  0
  6 14  1  0
  7  9  1  0
  7 11  1  0
  8 13  1  0
  8 15  1  0
  9 15  1  0
 11 16  1  0
 12 16  1  0
M  END
$$$$
