
     RDKit          3D

 31 32  0  0  0  0  0  0  0  0999 V2000
   22.4462   19.8765   21.5300 C   0  0  0  0  0  0  0  0  0  0  0  0
   19.2671   22.7000   20.0477 O   0  0  0  0  0  0  0  0  0  0  0  0
   19.4292   23.6187   20.9349 C   0  0  0  0  0  0  0  0  0  0  0  0
   23.9030   23.1485   18.1521 C   0  0  0  0  0  0  0  0  0  0  0  0
   21.1015   24.7866   22.4901 C   0  0  0  0  0  0  0  0  0  0  0  0
   21.4272   18.0962   20.3443 O   0  0  0  0  0  0  0  0  0  0  0  0
   25.5289   24.9767   18.5326 O   0  0  0  0  0  0  0  0  0  0  0  0
   22.7192   28.0225   21.5390 C   0  0  0  0  0  0  0  0  0  0  0  0
   21.3986   22.8329   15.7456 O   0  0  0  0  0  0  0  0  0  0  0  0
   22.1792   25.7599   22.1868 C   0  0  0  0  0  0  0  0  0  0  0  0
   23.5706   22.0233   21.6445 C   0  0  0  0  0  0  0  0  0  0  0  0
   22.4517   19.0353   20.2638 C   0  0  0  0  0  0  0  0  0  0  0  0
   23.9006   26.1707   20.6038 C   0  0  0  0  0  0  0  0  0  0  0  0
   22.7069   22.6719   17.6398 C   0  0  0  0  0  0  0  0  0  0  0  0
   26.6432   24.5115   17.6009 C   0  0  0  0  0  0  0  0  0  0  0  0
   24.3022   24.4807   17.9001 C   0  0  0  0  0  0  0  0  0  0  0  0
   22.3676   24.7316   16.4668 C   0  0  0  0  0  0  0  0  0  0  0  0
   23.4727   25.2953   17.1436 C   0  0  0  0  0  0  0  0  0  0  0  0
   23.5967   27.5089   20.5713 C   0  0  0  0  0  0  0  0  0  0  0  0
   24.3091   24.2788   22.4718 C   0  0  0  0  0  0  0  0  0  0  0  0
   23.4819   22.9172   22.8796 C   0  0  0  0  0  0  0  0  0  0  0  0
   23.3887   25.3689   21.6506 C   0  0  0  0  0  0  0  0  0  0  0  0
   22.1164   23.4082   16.5691 C   0  0  0  0  0  0  0  0  0  0  0  0
   23.6690   20.4810   22.1606 C   0  0  0  0  0  0  0  0  0  0  0  0
   23.7170   18.2523   19.6813 C   0  0  0  0  0  0  0  0  0  0  0  0
   20.6024   23.5555   21.8447 C   0  0  0  0  0  0  0  0  0  0  0  0
   21.9378   21.5732   18.3073 C   0  0  0  0  0  0  0  0  0  0  0  0
   21.4385   25.3709   15.7780 O   0  0  0  0  0  0  0  0  0  0  0  0
   21.9286   20.2555   19.1435 C   0  0  0  0  0  0  0  0  0  0  0  0
   18.5104   24.6184   21.1504 O   0  0  0  0  0  0  0  0  0  0  0  0
   22.0134   27.1584   22.3337 C   0  0  0  0  0  0  0  0  0  0  0  0
  1 12  1  0
  1 24  1  0
  2  3  2  0
  3 26  1  0
  3 30  1  0
  4 14  1  0
  4 16  2  0
  5 10  1  0
  5 26  1  0
  6 12  1  0
  7 15  1  0
  7 16  1  0
  8 19  1  0
  8 31  2  0
  9 23  2  0
 10 22  1  0
 10 31  1  0
 11 21  1  0
 11 24  1  0
 12 25  1  0
 12 29  1  0
 13 19  2  0
 13 22  1  0
 14 23  1  0
 14 27  1  0
 16 18  1  0
 17 18  2  0
 17 23  1  0
 17 28  1  0
 20 21  1  0
 20 22  1  0
 27 29  1  0
M  END
$$$$
