
     RDKit          3D

 12 11  0  0  0  0  0  0  0  0999 V2000
   22.0481   22.6612   19.0918 C   0  0  0  0  0  0  0  0  0  0  0  0
   23.1121   24.9401   20.1115 Cl  0  0  0  0  0  0  0  0  0  0  0  0
   21.4788   21.1757   19.3494 C   0  0  0  0  0  0  0  0  0  0  0  0
   21.8448   19.6619   19.9473 C   0  0  0  0  0  0  0  0  0  0  0  0
   21.8059   23.6989   20.2668 C   0  0  0  0  0  0  0  0  0  0  0  0
   20.1258   21.4364   19.9108 O   0  0  0  0  0  0  0  0  0  0  0  0
   21.4097   18.1725   20.0555 O   0  0  0  0  0  0  0  0  0  0  0  0
   20.6292   23.7412   21.4510 C   0  0  0  0  0  0  0  0  0  0  0  0
   22.4516   22.7911   17.4222 C   0  0  0  0  0  0  0  0  0  0  0  0
   19.1848   23.9788   21.6504 O   0  0  0  0  0  0  0  0  0  0  0  0
   21.2406   23.4862   22.6421 O   0  0  0  0  0  0  0  0  0  0  0  0
   22.5302   19.8717   21.3747 C   0  0  0  0  0  0  0  0  0  0  0  0
  1  3  1  0
  1  5  1  0
  1  9  1  0
  2  5  1  0
  3  4  1  0
  3  6  1  0
  4  7  1  0
  4 12  1  0
  5  8  1  0
  8 10  2  0
  8 11  1  0
M  END
$$$$
