
     RDKit          3D

  9  9  0  0  0  0  0  0  0  0999 V2000
    6.7831  -13.6242  -15.4793 O   0  0  0  0  0  0  0  0  0  0  0  0
    6.6985  -12.0280  -17.0619 O   0  0  0  0  0  0  0  0  0  0  0  0
    7.0554  -13.3276  -16.7961 C   0  0  0  0  0  0  0  0  0  0  0  0
    7.8571  -14.0815  -17.4849 O   0  0  0  0  0  0  0  0  0  0  0  0
    6.1558  -11.4579  -15.9224 C   0  0  0  0  0  0  0  0  0  0  0  0
    6.0975  -12.5307  -14.8713 C   0  0  0  0  0  0  0  0  0  0  0  0
    6.0749  -10.5972  -13.3670 O   0  0  0  0  0  0  0  0  0  0  0  0
    5.6838  -11.9525  -13.5645 C   0  0  0  0  0  0  0  0  0  0  0  0
    5.2326  -10.6032  -16.0380 O   0  0  0  0  0  0  0  0  0  0  0  0
  1  3  1  0
  1  6  1  0
  2  3  1  0
  2  5  1  0
  3  4  2  0
  5  6  1  0
  5  9  2  0
  6  8  1  0
  7  8  1  0
M  END
$$$$
