
     RDKit          3D

 11 10  0  0  0  0  0  0  0  0999 V2000
    6.3771  -11.5650  -15.4643 C   0  0  0  0  0  0  0  0  0  0  0  0
    4.0372  -10.9441  -15.9946 O   0  0  0  0  0  0  0  0  0  0  0  0
    6.7250  -13.4035  -17.2334 C   0  0  0  0  0  0  0  0  0  0  0  0
    4.8278  -12.0202  -12.7534 O   0  0  0  0  0  0  0  0  0  0  0  0
    4.8510  -11.6817  -15.1218 C   0  0  0  0  0  0  0  0  0  0  0  0
    6.5751  -10.4350  -16.4921 C   0  0  0  0  0  0  0  0  0  0  0  0
    6.9049  -12.9170  -15.9356 C   0  0  0  0  0  0  0  0  0  0  0  0
    4.7206   -9.8753  -13.5624 O   0  0  0  0  0  0  0  0  0  0  0  0
    4.6255  -11.1175  -13.6915 C   0  0  0  0  0  0  0  0  0  0  0  0
    8.0404  -10.6565  -17.7015 S   0  0  0  0  0  0  0  0  0  0  0  0
    7.3796  -13.6678  -15.0176 O   0  0  0  0  0  0  0  0  0  0  0  0
  1  5  1  0
  1  6  1  0
  1  7  1  0
  2  5  1  0
  3  7  1  0
  4  9  2  0
  5  9  1  0
  6 10  1  0
  7 11  2  0
  8  9  1  0
M  END
$$$$
