
     RDKit          3D

  9  8  0  0  0  0  0  0  0  0999 V2000
    5.5776  -10.6758  -13.4932 O   0  0  0  0  0  0  0  0  0  0  0  0
    6.8454  -13.0885  -14.6627 O   0  0  0  0  0  0  0  0  0  0  0  0
    4.8348  -11.2025  -14.3785 C   0  0  0  0  0  0  0  0  0  0  0  0
    6.8684  -13.0987  -17.0530 C   0  0  0  0  0  0  0  0  0  0  0  0
    6.4324  -12.5502  -15.7767 C   0  0  0  0  0  0  0  0  0  0  0  0
    6.9816  -12.3301  -18.0823 O   0  0  0  0  0  0  0  0  0  0  0  0
    3.4966  -11.6011  -14.0880 C   0  0  0  0  0  0  0  0  0  0  0  0
    5.3863  -11.5145  -15.7159 C   0  0  0  0  0  0  0  0  0  0  0  0
    7.2412  -14.3525  -17.0599 O   0  0  0  0  0  0  0  0  0  0  0  0
  1  3  2  0
  2  5  1  0
  3  7  1  0
  3  8  1  0
  4  5  1  0
  4  6  2  0
  4  9  1  0
  5  8  2  3
M  END
$$$$
