
     RDKit          3D

 22 23  0  0  0  0  0  0  0  0999 V2000
    5.1406  -11.1900  -13.0656 C   0  0  0  0  0  0  0  0  0  0  0  0
    5.0107  -10.7990  -15.6235 O   0  0  0  0  0  0  0  0  0  0  0  0
    6.5296  -14.0219  -14.7142 O   0  0  0  0  0  0  0  0  0  0  0  0
    2.0139  -12.9854  -12.6679 C   0  0  0  0  0  0  0  0  0  0  0  0
    3.7500  -11.6262  -12.7350 C   0  0  0  0  0  0  0  0  0  0  0  0
    3.4916  -13.1598  -12.7645 C   0  0  0  0  0  0  0  0  0  0  0  0
    2.8767  -10.7301  -13.4212 O   0  0  0  0  0  0  0  0  0  0  0  0
    8.0250  -12.2743  -16.4658 C   0  0  0  0  0  0  0  0  0  0  0  0
    8.7731   -8.9428  -18.1440 C   0  0  0  0  0  0  0  0  0  0  0  0
    4.3909  -13.9707  -13.6845 C   0  0  0  0  0  0  0  0  0  0  0  0
    8.5768  -10.6690  -19.8265 C   0  0  0  0  0  0  0  0  0  0  0  0
    8.8257   -9.3346  -19.5003 C   0  0  0  0  0  0  0  0  0  0  0  0
    7.6173  -11.9516  -15.0859 C   0  0  0  0  0  0  0  0  0  0  0  0
    1.2822  -13.8352  -13.3069 O   0  0  0  0  0  0  0  0  0  0  0  0
    6.2737  -12.6397  -14.7247 C   0  0  0  0  0  0  0  0  0  0  0  0
    5.3291  -11.4412  -14.5181 C   0  0  0  0  0  0  0  0  0  0  0  0
    8.3198  -11.5852  -18.8285 C   0  0  0  0  0  0  0  0  0  0  0  0
    5.8218  -13.6483  -13.6291 C   0  0  0  0  0  0  0  0  0  0  0  0
    3.7065  -14.7870  -14.4650 O   0  0  0  0  0  0  0  0  0  0  0  0
    7.3029  -13.4548  -17.1021 C   0  0  0  0  0  0  0  0  0  0  0  0
    8.3011  -11.2206  -17.4756 C   0  0  0  0  0  0  0  0  0  0  0  0
    8.5253   -9.8834  -17.1614 C   0  0  0  0  0  0  0  0  0  0  0  0
  1  5  1  0
  1 16  1  0
  2 16  1  0
  3 15  1  0
  3 18  1  0
  4  6  1  0
  4 14  1  0
  5  6  1  0
  5  7  1  0
  6 10  1  0
  8 13  1  0
  8 20  1  0
  8 21  1  0
  9 12  2  0
  9 22  1  0
 10 18  1  0
 10 19  1  0
 11 12  1  0
 11 17  2  0
 13 15  1  0
 15 16  1  0
 17 21  1  0
 21 22  2  0
M  END
$$$$
