
     RDKit          3D

 13 13  0  0  0  0  0  0  0  0999 V2000
    3.7231  -11.4655  -15.1951 O   0  0  0  0  0  0  0  0  0  0  0  0
    6.5875  -12.0273  -15.7990 C   0  0  0  0  0  0  0  0  0  0  0  0
    6.0012  -12.7153  -14.5415 C   0  0  0  0  0  0  0  0  0  0  0  0
    8.0184  -12.4030  -17.7189 C   0  0  0  0  0  0  0  0  0  0  0  0
    7.0036  -13.0561  -16.8049 C   0  0  0  0  0  0  0  0  0  0  0  0
    7.1193  -10.4688  -18.8420 O   0  0  0  0  0  0  0  0  0  0  0  0
    3.9475  -12.5658  -12.8951 O   0  0  0  0  0  0  0  0  0  0  0  0
    7.6571  -10.9201  -17.6743 C   0  0  0  0  0  0  0  0  0  0  0  0
    4.6212  -11.7332  -13.9853 P   0  0  0  0  0  0  0  0  0  0  0  0
    6.8525  -10.7208  -16.4624 C   0  0  0  0  0  0  0  0  0  0  0  0
    5.9777   -9.7497  -16.4559 O   0  0  0  0  0  0  0  0  0  0  0  0
    5.2198  -10.4033  -13.3999 O   0  0  0  0  0  0  0  0  0  0  0  0
    7.2929  -14.3020  -16.2704 O   0  0  0  0  0  0  0  0  0  0  0  0
  1  9  1  0
  2  3  1  0
  2  5  1  0
  2 10  1  0
  3  9  1  0
  4  5  1  0
  4  8  1  0
  5 13  1  0
  6  8  1  0
  7  9  1  0
  8 10  1  0
  9 12  1  0
 10 11  1  0
M  END
$$$$
