
     RDKit          3D

 25 28  0  0  0  0  0  0  0  0999 V2000
  -18.8965   16.3343  -31.0333 C   0  0  0  0  0  0  0  0  0  0  0  0
  -13.7105   15.7111  -27.9745 C   0  0  0  0  0  0  0  0  0  0  0  0
  -15.6813   17.2033  -26.8000 C   0  0  0  0  0  0  0  0  0  0  0  0
  -21.5714   17.1612  -30.1257 C   0  0  0  0  0  0  0  0  0  0  0  0
  -20.7496   18.6692  -31.8776 C   0  0  0  0  0  0  0  0  0  0  0  0
  -20.1211   16.0794  -26.7145 C   0  0  0  0  0  0  0  0  0  0  0  0
  -16.0382   15.8617  -27.2003 C   0  0  0  0  0  0  0  0  0  0  0  0
  -20.6758   16.4910  -29.1337 C   0  0  0  0  0  0  0  0  0  0  0  0
  -14.5732   17.9491  -27.3427 C   0  0  0  0  0  0  0  0  0  0  0  0
  -13.6857   17.1362  -28.1767 O   0  0  0  0  0  0  0  0  0  0  0  0
  -17.5028   15.8432  -26.9720 C   0  0  0  0  0  0  0  0  0  0  0  0
  -19.9766   14.2345  -32.9484 O   0  0  0  0  0  0  0  0  0  0  0  0
  -21.5071   15.7394  -26.5847 C   0  0  0  0  0  0  0  0  0  0  0  0
  -19.8064   15.4850  -33.1665 C   0  0  0  0  0  0  0  0  0  0  0  0
  -20.0620   16.3743  -32.0176 C   0  0  0  0  0  0  0  0  0  0  0  0
  -19.2995   16.9349  -25.9053 C   0  0  0  0  0  0  0  0  0  0  0  0
  -21.0997   17.2296  -31.5419 C   0  0  0  0  0  0  0  0  0  0  0  0
  -15.6899   14.4137  -27.1396 C   0  0  0  0  0  0  0  0  0  0  0  0
  -18.3123   15.2478  -27.9773 C   0  0  0  0  0  0  0  0  0  0  0  0
  -19.6157   16.0252  -28.1209 C   0  0  0  0  0  0  0  0  0  0  0  0
  -16.8385   17.9070  -26.3923 O   0  0  0  0  0  0  0  0  0  0  0  0
  -19.3763   16.0389  -34.1984 O   0  0  0  0  0  0  0  0  0  0  0  0
  -19.4956   16.2025  -29.7211 C   0  0  0  0  0  0  0  0  0  0  0  0
  -17.9207   17.0092  -26.3420 C   0  0  0  0  0  0  0  0  0  0  0  0
  -15.0827   15.1763  -28.0825 C   0  0  0  0  0  0  0  0  0  0  0  0
  1 15  1  0
  1 23  1  0
  2 10  1  0
  2 25  1  0
  3  7  1  0
  3  9  1  0
  3 21  1  0
  4  8  1  0
  4 17  1  0
  5 17  1  0
  6 13  1  0
  6 16  1  0
  6 20  1  0
  7 11  1  0
  7 25  1  0
  8 20  1  0
  8 23  2  0
  9 10  1  0
 11 19  1  0
 11 24  1  0
 12 14  2  0
 14 15  1  0
 14 22  1  0
 15 17  1  0
 16 24  1  0
 18 25  1  0
 19 20  1  0
 21 24  1  0
M  END
$$$$
