
     RDKit          3D

 32 36  0  0  0  0  0  0  0  0999 V2000
  -20.1103   17.2462  -31.8812 C   0  0  0  0  0  0  0  0  0  0  0  0
  -14.8847   14.3176  -26.6492 C   0  0  0  0  0  0  0  0  0  0  0  0
  -18.6920   15.5112  -27.2374 C   0  0  0  0  0  0  0  0  0  0  0  0
  -23.5010   17.0090  -27.6335 C   0  0  0  0  0  0  0  0  0  0  0  0
  -19.9823   15.9853  -27.4106 C   0  0  0  0  0  0  0  0  0  0  0  0
  -24.4010   15.9389  -27.7194 C   0  0  0  0  0  0  0  0  0  0  0  0
  -25.7181   16.1863  -27.6021 C   0  0  0  0  0  0  0  0  0  0  0  0
  -21.4004   18.1104  -29.8424 N   0  0  0  0  0  0  0  0  0  0  0  0
  -25.2854   18.5826  -27.6142 C   0  0  0  0  0  0  0  0  0  0  0  0
  -23.9438   18.3033  -27.6648 C   0  0  0  0  0  0  0  0  0  0  0  0
  -15.9769   13.4336  -27.1329 C   0  0  0  0  0  0  0  0  0  0  0  0
  -26.1601   17.5072  -27.5658 C   0  0  0  0  0  0  0  0  0  0  0  0
  -18.0317   15.8286  -33.4018 C   0  0  0  0  0  0  0  0  0  0  0  0
  -20.1776   16.8618  -28.4585 C   0  0  0  0  0  0  0  0  0  0  0  0
  -17.7076   15.8994  -28.1636 C   0  0  0  0  0  0  0  0  0  0  0  0
  -22.0745   19.3537  -30.0427 C   0  0  0  0  0  0  0  0  0  0  0  0
  -19.3883   17.0636  -29.5173 C   0  0  0  0  0  0  0  0  0  0  0  0
  -22.1297   16.7652  -27.5478 C   0  0  0  0  0  0  0  0  0  0  0  0
  -21.3146   15.8509  -26.8771 O   0  0  0  0  0  0  0  0  0  0  0  0
  -18.9029   17.7587  -32.5513 C   0  0  0  0  0  0  0  0  0  0  0  0
  -21.0895   15.1280  -31.4212 O   0  0  0  0  0  0  0  0  0  0  0  0
  -15.5224   14.5785  -28.0193 C   0  0  0  0  0  0  0  0  0  0  0  0
  -18.0644   16.5931  -29.3051 C   0  0  0  0  0  0  0  0  0  0  0  0
  -16.3654   15.7114  -27.9634 N   0  0  0  0  0  0  0  0  0  0  0  0
  -19.1762   15.2271  -32.6321 O   0  0  0  0  0  0  0  0  0  0  0  0
  -17.8756   18.3794  -31.9903 O   0  0  0  0  0  0  0  0  0  0  0  0
  -18.6161   17.1770  -33.8534 C   0  0  0  0  0  0  0  0  0  0  0  0
  -21.3598   17.6598  -28.4645 C   0  0  0  0  0  0  0  0  0  0  0  0
  -23.7810   14.3910  -28.0415 Cl  0  0  0  0  0  0  0  0  0  0  0  0
  -20.2101   15.7957  -31.9135 C   0  0  0  0  0  0  0  0  0  0  0  0
  -15.6878   16.8658  -27.3819 C   0  0  0  0  0  0  0  0  0  0  0  0
  -20.1846   17.8428  -30.5308 C   0  0  0  0  0  0  0  0  0  0  0  0
  1 20  1  0
  1 30  1  0
  1 32  1  0
  2 11  1  0
  3  5  1  0
  3 15  2  0
  4  6  1  0
  4 10  1  0
  4 18  1  0
  5 14  1  0
  5 19  1  0
  6  7  2  0
  6 29  1  0
  7 12  1  0
  8 16  1  0
  8 28  1  0
  8 32  1  0
  9 10  2  0
  9 12  1  0
 11 22  1  0
 13 25  1  0
 13 27  1  0
 14 17  1  0
 14 28  1  0
 15 23  1  0
 15 24  1  0
 17 23  2  0
 17 32  1  0
 18 19  1  0
 18 28  1  0
 20 26  1  0
 20 27  1  0
 21 30  2  0
 22 24  1  0
 24 31  1  0
 25 30  1  0
M  END
$$$$
