
     RDKit          3D

 23 25  0  0  0  0  0  0  0  0999 V2000
  -18.4207   15.4932  -31.3017 C   0  0  0  0  0  0  0  0  0  0  0  0
  -17.1791   14.4849  -28.7264 C   0  0  0  0  0  0  0  0  0  0  0  0
  -18.8612   14.8764  -33.4226 C   0  0  0  0  0  0  0  0  0  0  0  0
  -15.9147   14.0221  -28.5005 C   0  0  0  0  0  0  0  0  0  0  0  0
  -19.4133   15.2754  -32.1466 O   0  0  0  0  0  0  0  0  0  0  0  0
  -21.9205   16.1825  -30.3197 C   0  0  0  0  0  0  0  0  0  0  0  0
  -21.9771   18.8751  -29.6371 C   0  0  0  0  0  0  0  0  0  0  0  0
  -19.7217   15.9133  -29.3355 C   0  0  0  0  0  0  0  0  0  0  0  0
  -17.4642   15.2907  -33.3525 C   0  0  0  0  0  0  0  0  0  0  0  0
  -20.9518   18.0600  -29.2260 C   0  0  0  0  0  0  0  0  0  0  0  0
  -19.2184   15.6903  -28.0120 C   0  0  0  0  0  0  0  0  0  0  0  0
  -18.7000   18.9437  -31.1028 S   0  0  0  0  0  0  0  0  0  0  0  0
  -15.7727   15.4315  -26.5893 C   0  0  0  0  0  0  0  0  0  0  0  0
  -18.0583   17.6844  -30.0813 C   0  0  0  0  0  0  0  0  0  0  0  0
  -17.1361   15.4715  -31.9607 C   0  0  0  0  0  0  0  0  0  0  0  0
  -15.2047   14.4879  -27.4225 C   0  0  0  0  0  0  0  0  0  0  0  0
  -17.7994   15.3560  -27.8914 C   0  0  0  0  0  0  0  0  0  0  0  0
  -17.0571   15.8829  -26.8244 C   0  0  0  0  0  0  0  0  0  0  0  0
  -23.0013   18.3163  -30.3740 C   0  0  0  0  0  0  0  0  0  0  0  0
  -20.8834   16.7470  -29.6132 C   0  0  0  0  0  0  0  0  0  0  0  0
  -18.5746   16.3243  -30.1808 C   0  0  0  0  0  0  0  0  0  0  0  0
  -20.0538   15.7283  -26.9091 Cl  0  0  0  0  0  0  0  0  0  0  0  0
  -22.9733   16.9801  -30.7127 C   0  0  0  0  0  0  0  0  0  0  0  0
  1  5  1  0
  1 15  1  0
  1 21  1  0
  2  4  1  0
  2 17  2  0
  3  5  1  0
  3  9  1  0
  4 16  2  0
  6 20  1  0
  6 23  2  0
  7 10  1  0
  7 19  2  0
  8 11  1  0
  8 20  1  0
  8 21  1  0
  9 15  1  0
 10 20  2  0
 11 17  1  0
 11 22  1  0
 12 14  1  0
 13 16  1  0
 13 18  2  0
 14 21  1  0
 17 18  1  0
 19 23  1  0
M  END
$$$$
