
     RDKit          3D

 31 32  0  0  0  0  0  0  0  0999 V2000
    9.0557   -3.1304    0.6533 C   0  0  0  0  0  0  0  0  0  0  0  0
    4.4296   -2.3117    1.9598 C   0  0  0  0  0  0  0  0  0  0  0  0
    7.7004    0.4215    2.6524 C   0  0  0  0  0  0  0  0  0  0  0  0
    5.6619    4.4138    4.2309 O   0  0  0  0  0  0  0  0  0  0  0  0
    7.5042   -0.8524    3.2063 C   0  0  0  0  0  0  0  0  0  0  0  0
    7.2851    1.7064    3.1987 C   0  0  0  0  0  0  0  0  0  0  0  0
    8.3462    0.4694    1.4780 C   0  0  0  0  0  0  0  0  0  0  0  0
    6.2216    2.7273    5.6035 O   0  0  0  0  0  0  0  0  0  0  0  0
    8.3427   -4.2972    3.3213 O   0  0  0  0  0  0  0  0  0  0  0  0
    7.8658   -2.0192    2.5152 C   0  0  0  0  0  0  0  0  0  0  0  0
    9.5953   -1.2370   -1.3674 O   0  0  0  0  0  0  0  0  0  0  0  0
    1.5340    1.5068    0.0479 C   0  0  0  0  0  0  0  0  0  0  0  0
    8.5675   -1.8775    1.3116 C   0  0  0  0  0  0  0  0  0  0  0  0
    5.8771    3.1807    4.4472 C   0  0  0  0  0  0  0  0  0  0  0  0
    2.2555    2.8455   -0.0360 C   0  0  0  0  0  0  0  0  0  0  0  0
    7.4938   -3.3530    3.0597 C   0  0  0  0  0  0  0  0  0  0  0  0
    9.4428   -0.2592   -0.5578 C   0  0  0  0  0  0  0  0  0  0  0  0
    9.7710    0.9115   -0.8366 O   0  0  0  0  0  0  0  0  0  0  0  0
    0.3172    1.5692   -0.6073 N   0  0  0  0  0  0  0  0  0  0  0  0
    8.0537    2.7668    2.6779 O   0  0  0  0  0  0  0  0  0  0  0  0
    4.8092   -3.2001    3.1289 C   0  0  0  0  0  0  0  0  0  0  0  0
    2.3875    0.3222    0.2742 C   0  0  0  0  0  0  0  0  0  0  0  0
    4.2275    3.6327    2.2615 C   0  0  0  0  0  0  0  0  0  0  0  0
    1.9260   -0.8876    0.8118 N   0  0  0  0  0  0  0  0  0  0  0  0
    3.1279    3.2376    1.2045 C   0  0  0  0  0  0  0  0  0  0  0  0
    2.8749   -1.8849    1.5150 C   0  0  0  0  0  0  0  0  0  0  0  0
    3.6681    0.3421    0.1105 O   0  0  0  0  0  0  0  0  0  0  0  0
    6.1818   -3.6046    3.3739 O   0  0  0  0  0  0  0  0  0  0  0  0
    5.8719    2.0662    3.2939 C   0  0  0  0  0  0  0  0  0  0  0  0
    5.3823    2.7377    2.0639 N   0  0  0  0  0  0  0  0  0  0  0  0
    8.7929   -0.5797    0.7426 C   0  0  0  0  0  0  0  0  0  0  0  0
  1 13  1  0
  2 21  2  3
  2 26  1  0
  3  5  1  0
  3  6  1  0
  3  7  2  0
  4 14  2  0
  5 10  2  0
  6 20  1  0
  6 29  1  0
  7 31  1  0
  8 14  1  0
  9 16  2  0
 10 13  1  0
 10 16  1  0
 11 17  2  0
 12 15  1  0
 12 19  1  0
 12 22  1  0
 13 31  2  0
 14 29  1  0
 15 25  1  0
 16 28  1  0
 17 18  1  0
 17 31  1  0
 21 28  1  0
 22 24  1  0
 22 27  2  0
 23 25  1  0
 23 30  1  0
 24 26  2  3
 29 30  1  0
M  END
$$$$
