
     RDKit          3D

 28 31  0  0  0  0  0  0  0  0999 V2000
    5.4492   -2.4843    2.0365 N   0  0  0  0  0  0  0  0  0  0  0  0
    5.4962    1.5782    2.7965 C   0  0  0  0  0  0  0  0  0  0  0  0
   -0.6882    1.4755   -0.3913 O   0  0  0  0  0  0  0  0  0  0  0  0
    1.7061    1.4789   -0.5839 C   0  0  0  0  0  0  0  0  0  0  0  0
    4.4841    2.7224    2.7115 C   0  0  0  0  0  0  0  0  0  0  0  0
    3.1475    2.9184    0.5130 O   0  0  0  0  0  0  0  0  0  0  0  0
    9.7889   -3.8081    1.3912 C   0  0  0  0  0  0  0  0  0  0  0  0
    0.3406    2.1364   -0.5951 C   0  0  0  0  0  0  0  0  0  0  0  0
    3.2858    0.3065    0.9045 C   0  0  0  0  0  0  0  0  0  0  0  0
    5.4636    0.2272    2.3046 C   0  0  0  0  0  0  0  0  0  0  0  0
    6.7856    2.6000    3.0934 C   0  0  0  0  0  0  0  0  0  0  0  0
    0.3457    3.5051   -0.4944 N   0  0  0  0  0  0  0  0  0  0  0  0
    5.3557    4.5317    4.0864 O   0  0  0  0  0  0  0  0  0  0  0  0
    4.3456   -1.7501    1.7836 C   0  0  0  0  0  0  0  0  0  0  0  0
    6.5530   -0.5556    2.5652 N   0  0  0  0  0  0  0  0  0  0  0  0
    4.3619   -0.3458    1.6669 C   0  0  0  0  0  0  0  0  0  0  0  0
    1.4877   -0.0045   -0.6906 C   0  0  0  0  0  0  0  0  0  0  0  0
    7.8300   -2.5235    2.1023 O   0  0  0  0  0  0  0  0  0  0  0  0
    6.6213   -1.8579    2.2365 C   0  0  0  0  0  0  0  0  0  0  0  0
    8.7292   -2.7290    1.0598 C   0  0  0  0  0  0  0  0  0  0  0  0
    2.2775   -0.5394    0.4608 C   0  0  0  0  0  0  0  0  0  0  0  0
    7.4813    2.4454    1.9035 O   0  0  0  0  0  0  0  0  0  0  0  0
    8.8778   -1.9703   -0.2600 C   0  0  0  0  0  0  0  0  0  0  0  0
    5.6338    3.7548    3.0137 C   0  0  0  0  0  0  0  0  0  0  0  0
    3.1687   -2.4050    1.6247 N   0  0  0  0  0  0  0  0  0  0  0  0
    2.1340   -1.7965    0.9923 C   0  0  0  0  0  0  0  0  0  0  0  0
    7.6703    3.1093    4.0993 O   0  0  0  0  0  0  0  0  0  0  0  0
    2.9003    1.6502    0.3397 C   0  0  0  0  0  0  0  0  0  0  0  0
  1 14  2  0
  1 19  1  0
  2  5  1  0
  2 10  1  0
  2 11  1  0
  3  8  2  0
  4  8  1  0
  4 17  1  0
  4 28  1  0
  5 24  1  0
  6 28  1  0
  7 20  1  0
  8 12  1  0
  9 16  2  0
  9 21  1  0
  9 28  1  0
 10 15  2  0
 10 16  1  0
 11 22  1  0
 11 24  1  0
 11 27  1  0
 13 24  1  0
 14 16  1  0
 14 25  1  0
 15 19  1  0
 17 21  1  0
 18 19  1  0
 18 20  1  0
 20 23  1  0
 21 26  1  0
 25 26  2  0
M  END
$$$$
