
     RDKit          3D

 29 32  0  0  0  0  0  0  0  0999 V2000
  101.2325    9.1693  -91.1385 S   0  0  0  0  0  0  0  0  0  0  0  0
  107.1780    4.0390  -92.1811 O   0  0  0  0  0  0  0  0  0  0  0  0
  103.9133    6.9467  -91.1558 N   0  0  0  0  0  0  0  0  0  0  0  0
   98.5178    6.3721  -91.2234 C   0  0  0  0  0  0  0  0  0  0  0  0
   99.7259   11.2891  -91.4479 C   0  0  0  0  0  0  0  0  0  0  0  0
   99.6259    4.5385  -89.9212 C   0  0  0  0  0  0  0  0  0  0  0  0
  105.1451    6.5056  -91.0141 C   0  0  0  0  0  0  0  0  0  0  0  0
  101.2216    6.3121  -90.8423 C   0  0  0  0  0  0  0  0  0  0  0  0
  106.3792    7.2284  -91.2941 C   0  0  0  0  0  0  0  0  0  0  0  0
  107.4098    6.2093  -91.2147 O   0  0  0  0  0  0  0  0  0  0  0  0
  102.7433    6.4420  -90.4594 C   0  0  0  0  0  0  0  0  0  0  0  0
  102.2062    2.0377  -93.8224 C   0  0  0  0  0  0  0  0  0  0  0  0
   98.3403    4.8747  -89.0977 C   0  0  0  0  0  0  0  0  0  0  0  0
  100.4603    3.4485  -92.8254 C   0  0  0  0  0  0  0  0  0  0  0  0
  101.5887    3.3575  -93.7208 C   0  0  0  0  0  0  0  0  0  0  0  0
   98.7600    4.8744  -87.6191 C   0  0  0  0  0  0  0  0  0  0  0  0
  100.0485    4.8231  -92.5460 C   0  0  0  0  0  0  0  0  0  0  0  0
  105.4085    5.0804  -90.9402 C   0  0  0  0  0  0  0  0  0  0  0  0
   99.9451    2.7658  -87.3999 O   0  0  0  0  0  0  0  0  0  0  0  0
   99.9032    5.3624  -91.1274 C   0  0  0  0  0  0  0  0  0  0  0  0
   99.8061    9.9290  -91.2561 C   0  0  0  0  0  0  0  0  0  0  0  0
  101.6725    4.2459  -94.6880 O   0  0  0  0  0  0  0  0  0  0  0  0
  100.5803    7.6437  -91.0217 C   0  0  0  0  0  0  0  0  0  0  0  0
  101.0625    4.6063  -86.6174 N   0  0  0  0  0  0  0  0  0  0  0  0
  100.6993    4.3126  -88.9972 N   0  0  0  0  0  0  0  0  0  0  0  0
   98.6845    9.0178  -91.2251 C   0  0  0  0  0  0  0  0  0  0  0  0
  106.7971    4.9479  -91.3240 C   0  0  0  0  0  0  0  0  0  0  0  0
  100.1659    4.0299  -87.5894 C   0  0  0  0  0  0  0  0  0  0  0  0
   99.1961    7.6791  -91.1451 C   0  0  0  0  0  0  0  0  0  0  0  0
  1 21  1  0
  1 23  1  0
  2 27  2  0
  3  7  1  0
  3 11  1  0
  4 20  1  0
  4 29  1  0
  5 21  2  0
  6 13  1  0
  6 20  1  0
  6 25  1  0
  7  9  1  0
  7 18  1  0
  8 11  1  0
  8 20  1  0
  8 23  1  0
  9 10  1  0
 10 27  1  0
 12 15  1  0
 13 16  1  0
 14 15  1  0
 14 17  1  0
 15 22  1  0
 16 28  1  0
 17 20  1  0
 18 27  1  0
 19 28  1  0
 21 26  1  0
 23 29  2  0
 24 28  1  0
 25 28  1  0
 26 29  1  0
M  END
$$$$
