
     RDKit          3D

 24 26  0  0  0  0  0  0  0  0999 V2000
   99.4762   10.5455  -90.8544 C   0  0  0  0  0  0  0  0  0  0  0  0
  100.6522    9.6633  -91.1067 C   0  0  0  0  0  0  0  0  0  0  0  0
   97.0556    5.1914  -90.3258 O   0  0  0  0  0  0  0  0  0  0  0  0
   98.2748    5.0655  -90.0354 C   0  0  0  0  0  0  0  0  0  0  0  0
   99.7843   11.8161  -90.9055 O   0  0  0  0  0  0  0  0  0  0  0  0
  100.4832    3.7082  -92.8305 C   0  0  0  0  0  0  0  0  0  0  0  0
   98.0925   10.0809  -90.8586 C   0  0  0  0  0  0  0  0  0  0  0  0
  101.7923    5.2689  -91.4033 C   0  0  0  0  0  0  0  0  0  0  0  0
   98.7776    3.9845  -89.7846 O   0  0  0  0  0  0  0  0  0  0  0  0
  105.1490    4.1317  -91.7106 C   0  0  0  0  0  0  0  0  0  0  0  0
  101.1022    6.7744  -91.3099 C   0  0  0  0  0  0  0  0  0  0  0  0
  103.7273    3.7503  -91.2520 C   0  0  0  0  0  0  0  0  0  0  0  0
   97.8814    8.6355  -90.5534 C   0  0  0  0  0  0  0  0  0  0  0  0
  100.3425    4.6806  -91.6524 C   0  0  0  0  0  0  0  0  0  0  0  0
   99.8780    6.0416  -91.9564 O   0  0  0  0  0  0  0  0  0  0  0  0
   99.1578    7.9527  -90.3572 N   0  0  0  0  0  0  0  0  0  0  0  0
   98.9384    6.5181  -89.7752 C   0  0  0  0  0  0  0  0  0  0  0  0
  105.9966    2.0178  -90.9156 O   0  0  0  0  0  0  0  0  0  0  0  0
  100.4694    8.1604  -90.9449 C   0  0  0  0  0  0  0  0  0  0  0  0
  102.7543    4.3328  -92.2314 C   0  0  0  0  0  0  0  0  0  0  0  0
  105.8667    2.7753  -91.9013 C   0  0  0  0  0  0  0  0  0  0  0  0
  102.4738    2.6015  -93.8608 O   0  0  0  0  0  0  0  0  0  0  0  0
  106.0146    2.4589  -93.1268 O   0  0  0  0  0  0  0  0  0  0  0  0
  101.9351    3.4197  -93.0349 C   0  0  0  0  0  0  0  0  0  0  0  0
  1  2  1  0
  1  5  1  0
  1  7  1  0
  2 19  2  0
  3  4  2  0
  4  9  1  0
  4 17  1  0
  6 14  1  0
  6 24  1  0
  7 13  1  0
  8 11  1  0
  8 14  1  0
  8 20  1  0
 10 12  1  0
 10 21  1  0
 11 15  1  0
 11 19  1  0
 12 20  1  0
 13 16  1  0
 14 15  1  0
 16 17  1  0
 16 19  1  0
 18 21  2  0
 20 24  1  0
 21 23  1  0
 22 24  2  0
M  END
$$$$
