
     RDKit          3D

 28 29  0  0  0  0  0  0  0  0999 V2000
   27.0666   34.3614  103.5678 C   0  0  0  0  0  0  0  0  0  0  0  0
   28.7353   36.2391  104.1220 C   0  0  0  0  0  0  0  0  0  0  0  0
   29.2364   35.1171  104.2931 C   0  0  0  0  0  0  0  0  0  0  0  0
   29.3333   33.1506  102.8888 C   0  0  0  0  0  0  0  0  0  0  0  0
   29.3865   37.2213  103.5142 O   0  0  0  0  0  0  0  0  0  0  0  0
   24.3226   34.5872  105.6604 N   0  0  0  0  0  0  0  0  0  0  0  0
   23.1134   32.2856  105.2088 O   0  0  0  0  0  0  0  0  0  0  0  0
   26.8610   35.0979  102.5138 C   0  0  0  0  0  0  0  0  0  0  0  0
   26.3598   34.2578  104.3298 C   0  0  0  0  0  0  0  0  0  0  0  0
   22.9859   35.1280  105.6097 C   0  0  0  0  0  0  0  0  0  0  0  0
   31.8661   33.2377  102.2267 O   0  0  0  0  0  0  0  0  0  0  0  0
   31.3408   34.1113  104.3357 C   0  0  0  0  0  0  0  0  0  0  0  0
   24.0969   35.7449  100.3927 F   0  0  0  0  0  0  0  0  0  0  0  0
   30.5202   34.9133  104.7943 C   0  0  0  0  0  0  0  0  0  0  0  0
   21.9552   32.8452  105.8727 C   0  0  0  0  0  0  0  0  0  0  0  0
   25.3465   36.2930  100.8773 C   0  0  0  0  0  0  0  0  0  0  0  0
   25.0982   34.2687  106.9019 C   0  0  0  0  0  0  0  0  0  0  0  0
   24.6157   35.2581  103.1747 C   0  0  0  0  0  0  0  0  0  0  0  0
   30.8687   33.3227  103.0965 C   0  0  0  0  0  0  0  0  0  0  0  0
   25.0332   34.5482  104.3248 C   0  0  0  0  0  0  0  0  0  0  0  0
   26.2584   35.8921   99.9375 F   0  0  0  0  0  0  0  0  0  0  0  0
   26.1325   33.3448  107.0639 O   0  0  0  0  0  0  0  0  0  0  0  0
   25.0645   37.4777  101.1855 F   0  0  0  0  0  0  0  0  0  0  0  0
   24.8113   34.8079  108.1013 O   0  0  0  0  0  0  0  0  0  0  0  0
   28.6059   34.0557  103.5345 C   0  0  0  0  0  0  0  0  0  0  0  0
   32.6531   33.8158  104.9216 C   0  0  0  0  0  0  0  0  0  0  0  0
   25.4302   35.4083  102.1286 C   0  0  0  0  0  0  0  0  0  0  0  0
   21.9049   34.2174  106.4834 C   0  0  0  0  0  0  0  0  0  0  0  0
  1  8  1  0
  1  9  1  0
  1 25  1  0
  2  3  1  0
  2  5  1  0
  3 14  1  0
  3 25  1  0
  4 19  1  0
  4 25  1  0
  6 10  1  0
  6 17  1  0
  6 20  1  0
  7 15  1  0
  8 27  1  0
  9 20  2  0
 10 28  1  0
 11 19  1  0
 12 14  2  0
 12 19  1  0
 12 26  1  0
 13 16  1  0
 15 28  1  0
 16 21  1  0
 16 23  1  0
 16 27  1  0
 17 22  2  0
 17 24  1  0
 18 20  1  0
 18 27  1  0
M  END
$$$$
