
     RDKit          3D

 31 32  0  0  0  0  0  0  0  0999 V2000
   31.0883   33.5920  103.0939 C   0  0  0  0  0  0  0  0  0  0  0  0
   26.5653   34.4806  105.1913 C   0  0  0  0  0  0  0  0  0  0  0  0
   24.8251   32.3169  104.1328 O   0  0  0  0  0  0  0  0  0  0  0  0
   23.2938   36.1401   98.8801 N   0  0  0  0  0  0  0  0  0  0  0  0
   24.9661   36.9895  100.6898 C   0  0  0  0  0  0  0  0  0  0  0  0
   23.0145   33.5558  104.8198 N   0  0  0  0  0  0  0  0  0  0  0  0
   23.3649   33.3504  107.2360 C   0  0  0  0  0  0  0  0  0  0  0  0
   25.6527   36.5535  101.5293 N   0  0  0  0  0  0  0  0  0  0  0  0
   27.5051   35.1797  103.3856 N   0  0  0  0  0  0  0  0  0  0  0  0
   24.9494   33.8944  107.3733 C   0  0  0  0  0  0  0  0  0  0  0  0
   24.2623   33.2682  104.7846 C   0  0  0  0  0  0  0  0  0  0  0  0
   32.0322   33.6782  102.3429 O   0  0  0  0  0  0  0  0  0  0  0  0
   25.1476   34.6622  102.9523 N   0  0  0  0  0  0  0  0  0  0  0  0
   30.0464   32.9129  102.9038 C   0  0  0  0  0  0  0  0  0  0  0  0
   21.0103   32.2902  106.2925 C   0  0  0  0  0  0  0  0  0  0  0  0
   29.9134   37.0325  103.6434 O   0  0  0  0  0  0  0  0  0  0  0  0
   33.0325   33.8805  104.9456 O   0  0  0  0  0  0  0  0  0  0  0  0
   26.2819   34.6433  103.8818 C   0  0  0  0  0  0  0  0  0  0  0  0
   25.2170   34.9950  101.7488 C   0  0  0  0  0  0  0  0  0  0  0  0
   26.1250   33.1132  107.6133 O   0  0  0  0  0  0  0  0  0  0  0  0
   27.6417   34.5588  105.3637 C   0  0  0  0  0  0  0  0  0  0  0  0
   29.8129   35.4823  104.2691 C   0  0  0  0  0  0  0  0  0  0  0  0
   25.1557   34.0778  105.8020 C   0  0  0  0  0  0  0  0  0  0  0  0
   30.9807   34.8476  103.9930 C   0  0  0  0  0  0  0  0  0  0  0  0
   31.8800   34.5162  105.3503 C   0  0  0  0  0  0  0  0  0  0  0  0
   25.0368   34.8559  108.2490 O   0  0  0  0  0  0  0  0  0  0  0  0
   20.8932   32.5992  107.4951 O   0  0  0  0  0  0  0  0  0  0  0  0
   22.2677   33.1518  105.9080 C   0  0  0  0  0  0  0  0  0  0  0  0
   24.0874   35.7658  100.2848 C   0  0  0  0  0  0  0  0  0  0  0  0
   28.6372   34.7802  104.3740 C   0  0  0  0  0  0  0  0  0  0  0  0
   20.8252   31.2525  105.6315 O   0  0  0  0  0  0  0  0  0  0  0  0
  1 12  2  0
  1 14  1  0
  1 24  1  0
  2 18  1  0
  2 21  2  0
  2 23  1  0
  3 11  2  0
  4 29  1  0
  5  8  1  0
  5 29  1  0
  6 11  1  0
  6 28  1  0
  7 10  1  0
  7 28  2  0
  8 19  1  0
  9 18  1  0
  9 30  1  0
 10 20  1  0
 10 23  1  0
 10 26  1  0
 11 23  1  0
 13 18  2  3
 13 19  1  0
 15 27  2  0
 15 28  1  0
 15 31  1  0
 16 22  1  0
 17 25  1  0
 21 30  1  0
 22 24  1  0
 22 30  1  0
 24 25  1  0
M  END
$$$$
