
     RDKit          3D

 32 35  0  0  0  0  0  0  0  0999 V2000
   30.7909   35.5470  104.9658 C   0  0  0  0  0  0  0  0  0  0  0  0
   24.2960   36.1714  100.0666 C   0  0  0  0  0  0  0  0  0  0  0  0
   23.3452   36.1971   98.9907 F   0  0  0  0  0  0  0  0  0  0  0  0
   29.7655   35.7726  103.9161 C   0  0  0  0  0  0  0  0  0  0  0  0
   31.9327   33.5708  104.2904 C   0  0  0  0  0  0  0  0  0  0  0  0
   26.6035   34.6762  105.9073 N   0  0  0  0  0  0  0  0  0  0  0  0
   22.4665   32.9389  105.4612 C   0  0  0  0  0  0  0  0  0  0  0  0
   22.5183   30.8208  104.4872 C   0  0  0  0  0  0  0  0  0  0  0  0
   24.4158   32.1452  104.2573 C   0  0  0  0  0  0  0  0  0  0  0  0
   25.4190   34.3495  106.4679 C   0  0  0  0  0  0  0  0  0  0  0  0
   24.4291   37.3674  100.6839 F   0  0  0  0  0  0  0  0  0  0  0  0
   24.1058   35.0996  100.8919 C   0  0  0  0  0  0  0  0  0  0  0  0
   32.1494   33.9226  101.9607 O   0  0  0  0  0  0  0  0  0  0  0  0
   25.2673   34.0675  107.7893 O   0  0  0  0  0  0  0  0  0  0  0  0
   29.6056   36.8285  103.4235 O   0  0  0  0  0  0  0  0  0  0  0  0
   24.4732   34.9447  103.1571 C   0  0  0  0  0  0  0  0  0  0  0  0
   28.7183   34.7900  104.0250 N   0  0  0  0  0  0  0  0  0  0  0  0
   25.5800   35.8590   99.4859 F   0  0  0  0  0  0  0  0  0  0  0  0
   31.1286   34.2096  105.3464 C   0  0  0  0  0  0  0  0  0  0  0  0
   31.3594   33.6219  103.0229 C   0  0  0  0  0  0  0  0  0  0  0  0
   33.2059   33.7556  104.5999 O   0  0  0  0  0  0  0  0  0  0  0  0
   21.9325   31.7453  105.2447 C   0  0  0  0  0  0  0  0  0  0  0  0
   25.1106   35.0842  102.1314 C   0  0  0  0  0  0  0  0  0  0  0  0
   23.7950   33.2177  104.9599 C   0  0  0  0  0  0  0  0  0  0  0  0
   25.0474   34.5594  104.3041 C   0  0  0  0  0  0  0  0  0  0  0  0
   26.3709   34.7173  104.5594 C   0  0  0  0  0  0  0  0  0  0  0  0
   29.9592   33.3085  102.9063 C   0  0  0  0  0  0  0  0  0  0  0  0
   24.4309   34.1564  105.5970 N   0  0  0  0  0  0  0  0  0  0  0  0
   29.0241   33.4739  103.9345 N   0  0  0  0  0  0  0  0  0  0  0  0
   26.6991   35.1322  102.2734 N   0  0  0  0  0  0  0  0  0  0  0  0
   23.7866   31.0797  103.9016 C   0  0  0  0  0  0  0  0  0  0  0  0
   27.3708   34.9596  103.6666 C   0  0  0  0  0  0  0  0  0  0  0  0
  1  4  1  0
  1 19  1  0
  2  3  1  0
  2 11  1  0
  2 12  1  0
  2 18  1  0
  4 15  2  0
  4 17  1  0
  5 19  1  0
  5 20  1  0
  5 21  1  0
  6 10  1  0
  6 26  1  0
  7 22  2  0
  7 24  1  0
  8 22  1  0
  8 31  1  0
  9 24  1  0
  9 31  2  0
 10 14  2  0
 10 28  1  0
 12 23  1  0
 13 20  1  0
 16 23  2  0
 16 25  1  0
 17 29  1  0
 17 32  1  0
 20 27  1  0
 23 30  1  0
 24 28  1  0
 25 26  1  0
 25 28  1  0
 26 32  1  0
 27 29  1  0
 30 32  2  0
M  END
$$$$
