
     RDKit          3D

 35 38  0  0  0  0  0  0  0  0999 V2000
   25.1503   35.6705  101.8894 C   0  0  0  0  0  0  0  0  0  0  0  0
   26.4070   36.1951  102.2688 O   0  0  0  0  0  0  0  0  0  0  0  0
   23.7796   33.3212  104.8673 C   0  0  0  0  0  0  0  0  0  0  0  0
   22.6601   32.6968  104.5562 C   0  0  0  0  0  0  0  0  0  0  0  0
   24.4098   34.0910  103.8145 C   0  0  0  0  0  0  0  0  0  0  0  0
   28.4672   34.8185  104.8364 C   0  0  0  0  0  0  0  0  0  0  0  0
   27.5652   34.1607   97.7191 C   0  0  0  0  0  0  0  0  0  0  0  0
   29.9161   36.6991  103.4599 O   0  0  0  0  0  0  0  0  0  0  0  0
   25.2099   34.9705  103.5495 C   0  0  0  0  0  0  0  0  0  0  0  0
   24.1802   33.7990  106.1594 C   0  0  0  0  0  0  0  0  0  0  0  0
   23.2891   33.3590  107.3328 C   0  0  0  0  0  0  0  0  0  0  0  0
   26.4244   34.6051  105.7582 C   0  0  0  0  0  0  0  0  0  0  0  0
   24.2058   36.1282  100.1465 C   0  0  0  0  0  0  0  0  0  0  0  0
   25.2572   34.5444  106.5203 C   0  0  0  0  0  0  0  0  0  0  0  0
   21.7694   32.3427  105.6131 C   0  0  0  0  0  0  0  0  0  0  0  0
   31.1532   34.7831  104.0171 N   0  0  0  0  0  0  0  0  0  0  0  0
   32.0322   34.0304  103.2750 C   0  0  0  0  0  0  0  0  0  0  0  0
   28.7820   34.9692   97.0652 C   0  0  0  0  0  0  0  0  0  0  0  0
   31.7697   33.9803  106.0500 O   0  0  0  0  0  0  0  0  0  0  0  0
   28.7386   36.1774   97.0002 O   0  0  0  0  0  0  0  0  0  0  0  0
   29.4910   34.6105  105.8243 C   0  0  0  0  0  0  0  0  0  0  0  0
   30.0748   35.2018  103.1036 C   0  0  0  0  0  0  0  0  0  0  0  0
   26.2884   35.4136  103.8489 C   0  0  0  0  0  0  0  0  0  0  0  0
   24.2533   36.4933  101.6529 O   0  0  0  0  0  0  0  0  0  0  0  0
   29.9105   34.2299   96.8845 O   0  0  0  0  0  0  0  0  0  0  0  0
   26.2905   35.0650   99.5427 C   0  0  0  0  0  0  0  0  0  0  0  0
   28.8839   34.3633  103.5322 C   0  0  0  0  0  0  0  0  0  0  0  0
   27.1505   34.8396  104.8178 C   0  0  0  0  0  0  0  0  0  0  0  0
   31.5621   32.8455  102.7464 O   0  0  0  0  0  0  0  0  0  0  0  0
   30.9265   34.2775  105.2005 C   0  0  0  0  0  0  0  0  0  0  0  0
   25.5046   34.8183  108.0268 O   0  0  0  0  0  0  0  0  0  0  0  0
   22.0209   32.7966  106.8587 C   0  0  0  0  0  0  0  0  0  0  0  0
   26.2135   34.8536   97.9229 C   0  0  0  0  0  0  0  0  0  0  0  0
   25.1820   34.9624  100.3877 N   0  0  0  0  0  0  0  0  0  0  0  0
   23.3784   36.1073   99.0267 N   0  0  0  0  0  0  0  0  0  0  0  0
  1  2  1  0
  1  9  1  0
  1 24  1  0
  1 34  1  0
  3  4  1  0
  3  5  2  3
  3 10  1  0
  4 15  2  0
  5  9  1  0
  6 21  1  0
  6 27  1  0
  6 28  1  0
  7 18  1  0
  7 33  1  0
  8 22  1  0
  9 23  1  0
 10 11  1  0
 10 14  1  0
 11 32  1  0
 12 14  2  0
 12 28  2  0
 13 24  1  0
 13 34  1  0
 13 35  2  0
 14 31  1  0
 15 32  1  0
 16 17  1  0
 16 22  1  0
 16 30  1  0
 17 29  1  0
 18 20  2  0
 18 25  1  0
 19 30  2  0
 21 30  1  0
 22 27  1  0
 23 28  1  0
 26 33  1  0
 26 34  1  0
M  END
$$$$
