
     RDKit          3D

 34 38  0  0  0  0  0  0  0  0999 V2000
    4.6908   -0.7118    7.1047 O   0  0  0  0  0  0  0  0  0  0  0  0
    3.1551    0.8879    1.0962 C   0  0  0  0  0  0  0  0  0  0  0  0
    4.7092    4.1086    2.4703 C   0  0  0  0  0  0  0  0  0  0  0  0
    6.4366   -2.8522    4.3938 C   0  0  0  0  0  0  0  0  0  0  0  0
    4.9244    4.3080    3.6874 O   0  0  0  0  0  0  0  0  0  0  0  0
    5.0896    0.8224    4.0004 C   0  0  0  0  0  0  0  0  0  0  0  0
    8.8436    0.5672    0.6833 C   0  0  0  0  0  0  0  0  0  0  0  0
    6.2871   -4.1863    3.6751 C   0  0  0  0  0  0  0  0  0  0  0  0
    4.7380    1.4495    2.7352 N   0  0  0  0  0  0  0  0  0  0  0  0
    5.0151   -1.9346    2.7284 C   0  0  0  0  0  0  0  0  0  0  0  0
    5.7543    1.7145    4.8648 N   0  0  0  0  0  0  0  0  0  0  0  0
    4.4458   -3.2799    2.3669 C   0  0  0  0  0  0  0  0  0  0  0  0
    2.1282    0.1570    0.5576 C   0  0  0  0  0  0  0  0  0  0  0  0
    9.3559   -1.5431   -0.4640 C   0  0  0  0  0  0  0  0  0  0  0  0
    4.9322   -0.4729    4.7318 C   0  0  0  0  0  0  0  0  0  0  0  0
    0.1562    2.6106   -1.0425 N   0  0  0  0  0  0  0  0  0  0  0  0
    4.9289   -4.3781    3.1735 O   0  0  0  0  0  0  0  0  0  0  0  0
    5.1934   -1.9464    4.2189 C   0  0  0  0  0  0  0  0  0  0  0  0
    1.1443    0.7499   -0.1184 N   0  0  0  0  0  0  0  0  0  0  0  0
    2.1270   -1.3268    0.7335 C   0  0  0  0  0  0  0  0  0  0  0  0
    4.7331    5.0587    1.6797 O   0  0  0  0  0  0  0  0  0  0  0  0
    8.9828    1.9140    0.8649 O   0  0  0  0  0  0  0  0  0  0  0  0
    9.5849   -0.1614   -0.2408 C   0  0  0  0  0  0  0  0  0  0  0  0
    7.5962   -1.3945    1.1055 C   0  0  0  0  0  0  0  0  0  0  0  0
    2.1712    2.8172    0.1546 N   0  0  0  0  0  0  0  0  0  0  0  0
    7.8916   -0.0999    1.3929 C   0  0  0  0  0  0  0  0  0  0  0  0
    1.2032    2.0559   -0.3135 C   0  0  0  0  0  0  0  0  0  0  0  0
    5.8106    1.1980    6.1688 C   0  0  0  0  0  0  0  0  0  0  0  0
    4.3219    2.7695    1.9012 C   0  0  0  0  0  0  0  0  0  0  0  0
    4.2834    0.3960    1.8625 C   0  0  0  0  0  0  0  0  0  0  0  0
    3.1880    2.2606    1.0149 C   0  0  0  0  0  0  0  0  0  0  0  0
    8.2788   -2.1515    0.2174 C   0  0  0  0  0  0  0  0  0  0  0  0
    4.8945   -0.7934    1.9279 N   0  0  0  0  0  0  0  0  0  0  0  0
    5.3423   -0.1740    6.1272 C   0  0  0  0  0  0  0  0  0  0  0  0
  1 34  1  0
  2 13  1  0
  2 30  1  0
  2 31  2  0
  3  5  2  0
  3 21  1  0
  3 29  1  0
  4  8  1  0
  4 18  1  0
  6  9  1  0
  6 11  2  0
  6 15  1  0
  7 22  1  0
  7 23  2  0
  7 26  1  0
  8 17  1  0
  9 29  1  0
  9 30  1  0
 10 12  1  0
 10 18  1  0
 10 33  1  0
 11 28  1  0
 12 17  1  0
 13 19  2  0
 13 20  1  0
 14 23  1  0
 14 32  2  0
 15 18  1  0
 15 34  1  0
 16 27  2  0
 19 27  1  0
 24 26  2  0
 24 32  1  0
 25 27  1  0
 25 31  1  0
 28 34  1  0
 29 31  1  0
 30 33  2  0
M  END
$$$$
