
     RDKit          3D

 28 31  0  0  0  0  0  0  0  0999 V2000
    6.4953    3.5711    3.7885 C   0  0  0  0  0  0  0  0  0  0  0  0
    1.9241   -2.3808    1.8273 O   0  0  0  0  0  0  0  0  0  0  0  0
    5.1440    1.2284    2.3175 C   0  0  0  0  0  0  0  0  0  0  0  0
    7.2709   -0.7282    1.5375 C   0  0  0  0  0  0  0  0  0  0  0  0
    3.0510    0.2967    0.6528 C   0  0  0  0  0  0  0  0  0  0  0  0
    7.9997   -3.0438    2.1993 C   0  0  0  0  0  0  0  0  0  0  0  0
    3.1692   -2.5211    2.0020 C   0  0  0  0  0  0  0  0  0  0  0  0
    8.8986   -3.1610    0.9812 C   0  0  0  0  0  0  0  0  0  0  0  0
    4.1665    1.9851    1.8925 O   0  0  0  0  0  0  0  0  0  0  0  0
    7.7348    3.7789    4.0059 O   0  0  0  0  0  0  0  0  0  0  0  0
    0.8607    0.8694   -0.2380 C   0  0  0  0  0  0  0  0  0  0  0  0
    6.0929    2.1892    3.2291 C   0  0  0  0  0  0  0  0  0  0  0  0
    4.1675   -0.6080    0.7534 C   0  0  0  0  0  0  0  0  0  0  0  0
    6.8704   -2.1203    1.8860 C   0  0  0  0  0  0  0  0  0  0  0  0
    4.2988   -1.7856    1.5718 N   0  0  0  0  0  0  0  0  0  0  0  0
    3.1261    1.6593    1.0374 C   0  0  0  0  0  0  0  0  0  0  0  0
    7.3368    1.3993    2.7634 C   0  0  0  0  0  0  0  0  0  0  0  0
    5.5332    4.3605    4.0383 O   0  0  0  0  0  0  0  0  0  0  0  0
    8.1066    2.0431    1.7298 O   0  0  0  0  0  0  0  0  0  0  0  0
    2.2348    2.6223    0.6764 C   0  0  0  0  0  0  0  0  0  0  0  0
    5.4750   -2.4590    2.0670 C   0  0  0  0  0  0  0  0  0  0  0  0
    3.6045   -3.5887    2.7296 N   0  0  0  0  0  0  0  0  0  0  0  0
    0.2313    3.2150   -0.4410 N   0  0  0  0  0  0  0  0  0  0  0  0
    5.0347   -3.6009    2.7685 C   0  0  0  0  0  0  0  0  0  0  0  0
    5.6449   -4.5930    3.2723 O   0  0  0  0  0  0  0  0  0  0  0  0
    1.1176    2.2453   -0.0056 C   0  0  0  0  0  0  0  0  0  0  0  0
    6.2798    0.3790    1.9348 C   0  0  0  0  0  0  0  0  0  0  0  0
    1.8271   -0.0768    0.1090 C   0  0  0  0  0  0  0  0  0  0  0  0
  1 10  2  0
  1 12  1  0
  1 18  1  0
  2  7  2  0
  3  9  1  0
  3 12  1  0
  3 27  1  0
  4 14  1  0
  4 27  1  0
  5 13  1  0
  5 16  1  0
  5 28  2  0
  6  8  1  0
  6 14  1  0
  7 15  1  0
  7 22  1  0
  9 16  1  0
 11 26  1  0
 11 28  1  0
 12 17  1  0
 13 15  1  0
 14 21  1  0
 15 21  1  0
 16 20  1  0
 17 19  1  0
 17 27  1  0
 20 26  2  0
 21 24  1  0
 22 24  1  0
 23 26  1  0
 24 25  2  0
M  END
$$$$
