
     RDKit          3D

 22 21  0  0  0  0  0  0  0  0999 V2000
    5.6215   -0.7825    2.0978 C   0  0  0  0  0  0  0  0  0  0  0  0
    6.2397   -2.1476    2.2862 C   0  0  0  0  0  0  0  0  0  0  0  0
    2.7100    2.5646    0.3228 O   0  0  0  0  0  0  0  0  0  0  0  0
    5.4219   -3.1914    2.5909 O   0  0  0  0  0  0  0  0  0  0  0  0
    1.9351    0.3897    0.0469 C   0  0  0  0  0  0  0  0  0  0  0  0
    1.7730   -0.8509    0.5308 O   0  0  0  0  0  0  0  0  0  0  0  0
    4.4284   -0.6578    1.1539 C   0  0  0  0  0  0  0  0  0  0  0  0
    0.7147    3.7264   -0.3109 N   0  0  0  0  0  0  0  0  0  0  0  0
    4.9022    4.5662    4.0480 O   0  0  0  0  0  0  0  0  0  0  0  0
    8.2164   -3.6937    2.5253 C   0  0  0  0  0  0  0  0  0  0  0  0
    5.1503    3.8709    1.6135 O   0  0  0  0  0  0  0  0  0  0  0  0
    4.2860    0.7519    0.6187 O   0  0  0  0  0  0  0  0  0  0  0  0
    0.8831    1.3021   -0.4947 C   0  0  0  0  0  0  0  0  0  0  0  0
    6.5682    0.2874    1.9376 N   0  0  0  0  0  0  0  0  0  0  0  0
    4.4570    2.1872    3.2953 O   0  0  0  0  0  0  0  0  0  0  0  0
    2.9704    1.2316    0.6262 C   0  0  0  0  0  0  0  0  0  0  0  0
   -0.3942    0.9971   -0.1988 O   0  0  0  0  0  0  0  0  0  0  0  0
    8.2408   -1.8698    0.8050 C   0  0  0  0  0  0  0  0  0  0  0  0
    5.3896    3.4293    3.0904 P   0  0  0  0  0  0  0  0  0  0  0  0
    6.8645    3.1726    3.3799 O   0  0  0  0  0  0  0  0  0  0  0  0
    1.4223    2.6206   -0.3504 C   0  0  0  0  0  0  0  0  0  0  0  0
    7.7011   -2.3269    2.1730 C   0  0  0  0  0  0  0  0  0  0  0  0
  1  2  1  0
  1  7  1  0
  1 14  1  0
  2  4  1  0
  2 22  1  0
  3 16  1  0
  3 21  1  0
  5  6  1  0
  5 13  1  0
  5 16  1  0
  7 12  1  0
  8 21  2  0
  9 19  1  0
 10 22  1  0
 11 19  1  0
 12 16  1  0
 13 17  1  0
 13 21  1  0
 15 19  1  0
 18 22  1  0
 19 20  1  0
M  END
$$$$
