
     RDKit          3D

 26 25  0  0  0  0  0  0  0  0999 V2000
    9.0727   -1.6004    0.2846 C   0  0  0  0  0  0  0  0  0  0  0  0
    3.3225    1.3097    1.1678 C   0  0  0  0  0  0  0  0  0  0  0  0
    5.2966   -0.5120    1.3408 O   0  0  0  0  0  0  0  0  0  0  0  0
    8.0380   -1.0138    1.2684 C   0  0  0  0  0  0  0  0  0  0  0  0
    4.6667    3.9765    3.2246 C   0  0  0  0  0  0  0  0  0  0  0  0
    7.5959    2.7215    2.2345 O   0  0  0  0  0  0  0  0  0  0  0  0
    4.4033   -3.2424    2.6892 C   0  0  0  0  0  0  0  0  0  0  0  0
    1.1067    0.7784   -0.2037 C   0  0  0  0  0  0  0  0  0  0  0  0
    7.0860    1.0462    3.7115 O   0  0  0  0  0  0  0  0  0  0  0  0
    3.9498   -1.0073    1.4696 C   0  0  0  0  0  0  0  0  0  0  0  0
    8.2683    0.4594    1.6621 C   0  0  0  0  0  0  0  0  0  0  0  0
    4.8712    3.4591    4.4784 O   0  0  0  0  0  0  0  0  0  0  0  0
   -0.0157    2.9485   -0.3910 C   0  0  0  0  0  0  0  0  0  0  0  0
    3.0031    0.0481    0.9685 N   0  0  0  0  0  0  0  0  0  0  0  0
    7.6111    1.4946    2.6001 C   0  0  0  0  0  0  0  0  0  0  0  0
    6.5143   -1.2289    0.9831 C   0  0  0  0  0  0  0  0  0  0  0  0
    9.1025   -3.1259    0.3498 C   0  0  0  0  0  0  0  0  0  0  0  0
    3.6271   -1.8853    2.6216 C   0  0  0  0  0  0  0  0  0  0  0  0
    1.2044    2.1452   -0.2720 C   0  0  0  0  0  0  0  0  0  0  0  0
    2.2154   -2.3200    2.5817 O   0  0  0  0  0  0  0  0  0  0  0  0
    4.7754    3.1160    2.1121 O   0  0  0  0  0  0  0  0  0  0  0  0
    3.8303   -4.3348    3.4968 C   0  0  0  0  0  0  0  0  0  0  0  0
    3.6376    2.4785    1.8467 C   0  0  0  0  0  0  0  0  0  0  0  0
    9.5804    0.9709    1.0661 C   0  0  0  0  0  0  0  0  0  0  0  0
    2.2781    3.0221   -0.3730 O   0  0  0  0  0  0  0  0  0  0  0  0
    1.9040   -0.2560    0.2109 C   0  0  0  0  0  0  0  0  0  0  0  0
  1  4  1  0
  1 17  1  0
  2 14  1  0
  2 23  1  0
  3 10  1  0
  3 16  1  0
  4 11  1  0
  4 16  1  0
  5 12  1  0
  5 21  1  0
  6 15  2  0
  7 18  1  0
  7 22  1  0
  8 19  1  0
  8 26  2  3
  9 15  1  0
 10 14  1  0
 10 18  1  0
 11 15  1  0
 11 24  1  0
 13 19  1  0
 14 26  1  0
 18 20  1  0
 19 25  1  0
 21 23  1  0
M  END
$$$$
