
     RDKit          3D

 31 32  0  0  0  0  0  0  0  0999 V2000
    1.4109    1.0091   -0.0708 C   0  0  0  0  0  0  0  0  0  0  0  0
    5.3369    3.9669    4.6644 O   0  0  0  0  0  0  0  0  0  0  0  0
    8.9046   -1.9984   -0.4054 C   0  0  0  0  0  0  0  0  0  0  0  0
    3.1470   -2.0248    1.5448 C   0  0  0  0  0  0  0  0  0  0  0  0
    7.6955   -1.3714    0.3442 C   0  0  0  0  0  0  0  0  0  0  0  0
    4.8431    4.4954    1.6221 O   0  0  0  0  0  0  0  0  0  0  0  0
    5.6028   -1.4247    1.5662 C   0  0  0  0  0  0  0  0  0  0  0  0
    3.3845    1.7324    1.2079 C   0  0  0  0  0  0  0  0  0  0  0  0
    9.5660   -2.7735    0.4293 O   0  0  0  0  0  0  0  0  0  0  0  0
   -0.8750    1.4918   -0.1325 O   0  0  0  0  0  0  0  0  0  0  0  0
    3.6803    0.2937    1.0593 C   0  0  0  0  0  0  0  0  0  0  0  0
    4.4961   -2.2403    1.7723 C   0  0  0  0  0  0  0  0  0  0  0  0
    2.1409   -2.7779    2.4293 C   0  0  0  0  0  0  0  0  0  0  0  0
    8.1290    3.7187    4.0643 O   0  0  0  0  0  0  0  0  0  0  0  0
    2.0162   -0.3983    0.0118 C   0  0  0  0  0  0  0  0  0  0  0  0
    6.9983   -1.8998    1.4210 C   0  0  0  0  0  0  0  0  0  0  0  0
    2.9072   -0.8816    0.7476 C   0  0  0  0  0  0  0  0  0  0  0  0
    6.0010    0.1389    2.4683 C   0  0  0  0  0  0  0  0  0  0  0  0
    5.2971   -0.0669    4.0487 C   0  0  0  0  0  0  0  0  0  0  0  0
    2.3005    2.1591    0.4425 C   0  0  0  0  0  0  0  0  0  0  0  0
    0.5353    3.1109   -0.1703 N   0  0  0  0  0  0  0  0  0  0  0  0
    2.1286    3.1369   -0.1542 N   0  0  0  0  0  0  0  0  0  0  0  0
    7.5321   -2.7020    2.3029 O   0  0  0  0  0  0  0  0  0  0  0  0
    4.5458    4.0917    2.5412 C   0  0  0  0  0  0  0  0  0  0  0  0
    2.4990   -2.8151    3.8661 O   0  0  0  0  0  0  0  0  0  0  0  0
    8.9216   -0.9088   -1.6747 C   0  0  0  0  0  0  0  0  0  0  0  0
    5.4075    3.8804    3.6390 C   0  0  0  0  0  0  0  0  0  0  0  0
    6.7422    1.8702    2.6312 C   0  0  0  0  0  0  0  0  0  0  0  0
    0.3023    1.7733   -0.3590 C   0  0  0  0  0  0  0  0  0  0  0  0
    1.4296   -3.0757    2.2131 O   0  0  0  0  0  0  0  0  0  0  0  0
    6.8121    3.1355    3.2833 C   0  0  0  0  0  0  0  0  0  0  0  0
  1 15  1  0
  1 20  1  0
  1 29  1  0
  2 27  2  0
  3  5  1  0
  3  9  1  0
  3 26  1  0
  4 12  1  0
  4 13  1  0
  4 17  1  0
  5 16  1  0
  6 24  2  0
  7 12  1  0
  7 16  1  0
  7 18  1  0
  8 11  1  0
  8 20  1  0
 10 29  2  0
 11 17  1  0
 13 25  2  0
 13 30  1  0
 14 31  1  0
 15 17  1  0
 16 23  1  0
 18 19  1  0
 18 28  1  0
 20 22  1  0
 21 22  1  0
 21 29  1  0
 24 27  1  0
 27 31  1  0
 28 31  1  0
M  END
$$$$
