
     RDKit          3D

 28 28  0  0  0  0  0  0  0  0999 V2000
    9.3680   -3.5076    0.6034 C   0  0  0  0  0  0  0  0  0  0  0  0
    4.7868    4.1049    2.6216 C   0  0  0  0  0  0  0  0  0  0  0  0
    2.8239   -1.5315    0.9066 N   0  0  0  0  0  0  0  0  0  0  0  0
    4.4100   -1.1675    0.8222 C   0  0  0  0  0  0  0  0  0  0  0  0
    5.8109   -3.4498    2.7784 C   0  0  0  0  0  0  0  0  0  0  0  0
    3.8916    3.4379    1.7001 C   0  0  0  0  0  0  0  0  0  0  0  0
    6.2627    3.3319    2.2409 O   0  0  0  0  0  0  0  0  0  0  0  0
    8.7975   -2.3437   -0.0550 C   0  0  0  0  0  0  0  0  0  0  0  0
    2.5756   -2.2317    1.7615 C   0  0  0  0  0  0  0  0  0  0  0  0
    7.1002   -2.8475    2.1316 C   0  0  0  0  0  0  0  0  0  0  0  0
    2.7133    2.7609    0.7521 C   0  0  0  0  0  0  0  0  0  0  0  0
    4.6130   -3.1442    2.6079 C   0  0  0  0  0  0  0  0  0  0  0  0
    8.0933    1.7491    2.3503 O   0  0  0  0  0  0  0  0  0  0  0  0
    9.3512   -1.1935   -0.6664 C   0  0  0  0  0  0  0  0  0  0  0  0
   -0.2360    1.3819    0.0024 N   0  0  0  0  0  0  0  0  0  0  0  0
    3.6557   -0.5499   -0.0340 C   0  0  0  0  0  0  0  0  0  0  0  0
    9.4995    2.1473    1.9578 P   0  0  0  0  0  0  0  0  0  0  0  0
    3.8843   -2.1242    1.6861 C   0  0  0  0  0  0  0  0  0  0  0  0
    7.5184   -1.7921    1.0341 C   0  0  0  0  0  0  0  0  0  0  0  0
   -0.8023    2.1676    0.0332 C   0  0  0  0  0  0  0  0  0  0  0  0
    2.3227   -0.5473    0.1774 C   0  0  0  0  0  0  0  0  0  0  0  0
    9.3509    2.4748    0.4355 O   0  0  0  0  0  0  0  0  0  0  0  0
    8.8725   -0.6529   -1.9895 S   0  0  0  0  0  0  0  0  0  0  0  0
    8.1614    3.5003    3.9775 O   0  0  0  0  0  0  0  0  0  0  0  0
   10.3052    3.0969    2.7101 O   0  0  0  0  0  0  0  0  0  0  0  0
    1.9996    1.9488   -0.3822 C   0  0  0  0  0  0  0  0  0  0  0  0
    7.3245    2.6858    3.2435 P   0  0  0  0  0  0  0  0  0  0  0  0
    1.3393    0.6670   -0.1333 C   0  0  0  0  0  0  0  0  0  0  0  0
  1  8  1  0
  2  6  1  0
  2  7  1  0
  3  9  1  0
  3 21  1  0
  4 16  1  0
  4 18  2  0
  5 10  1  0
  5 12  2  3
  6 11  3  0
  7 27  1  0
  8 14  1  0
  8 19  1  0
  9 18  1  0
 10 19  1  0
 11 26  1  0
 12 18  1  0
 13 17  1  0
 13 27  1  0
 14 23  2  0
 15 20  2  0
 15 28  1  0
 16 21  1  0
 17 22  1  0
 17 25  1  0
 21 28  1  0
 24 27  1  0
 26 28  1  0
M  END
$$$$
