
     RDKit          3D

 29 29  0  0  0  0  0  0  0  0999 V2000
    7.9276   -2.3897    2.2161 O   0  0  0  0  0  0  0  0  0  0  0  0
   -1.9476    2.7935   -1.0704 C   0  0  0  0  0  0  0  0  0  0  0  0
    2.4687    2.6675    0.4829 C   0  0  0  0  0  0  0  0  0  0  0  0
    5.4492    0.3519    2.0126 C   0  0  0  0  0  0  0  0  0  0  0  0
    1.3658    0.6067   -0.1262 C   0  0  0  0  0  0  0  0  0  0  0  0
    9.3319   -3.5092    0.7518 C   0  0  0  0  0  0  0  0  0  0  0  0
    8.3404   -3.6547    1.8332 C   0  0  0  0  0  0  0  0  0  0  0  0
    1.4757    2.9621   -0.2129 C   0  0  0  0  0  0  0  0  0  0  0  0
   -0.7874    3.7966   -0.2380 O   0  0  0  0  0  0  0  0  0  0  0  0
   10.5321   -2.8681    1.7101 C   0  0  0  0  0  0  0  0  0  0  0  0
    4.9251    4.4889    1.3524 O   0  0  0  0  0  0  0  0  0  0  0  0
    4.3462   -0.4270    1.3118 C   0  0  0  0  0  0  0  0  0  0  0  0
    6.1637    2.8556    2.7687 C   0  0  0  0  0  0  0  0  0  0  0  0
    2.0282   -2.4746    1.8612 N   0  0  0  0  0  0  0  0  0  0  0  0
    5.3771    1.8505    2.2622 C   0  0  0  0  0  0  0  0  0  0  0  0
    8.3090    3.7275    4.1578 O   0  0  0  0  0  0  0  0  0  0  0  0
    5.3134    4.5146    4.5177 O   0  0  0  0  0  0  0  0  0  0  0  0
    3.0089   -2.2806    1.7375 C   0  0  0  0  0  0  0  0  0  0  0  0
    6.6677   -1.8079    1.9386 C   0  0  0  0  0  0  0  0  0  0  0  0
    6.3947    3.0993    5.4341 O   0  0  0  0  0  0  0  0  0  0  0  0
    0.2548    1.4021   -0.3195 C   0  0  0  0  0  0  0  0  0  0  0  0
    7.7319    2.6340    2.8499 C   0  0  0  0  0  0  0  0  0  0  0  0
    2.4193    1.1576    0.4070 C   0  0  0  0  0  0  0  0  0  0  0  0
    6.6876   -0.3770    1.9827 C   0  0  0  0  0  0  0  0  0  0  0  0
    5.4470    3.0964    3.7974 P   0  0  0  0  0  0  0  0  0  0  0  0
    4.2399   -1.8283    1.5525 C   0  0  0  0  0  0  0  0  0  0  0  0
    0.1388    2.8862   -0.1806 C   0  0  0  0  0  0  0  0  0  0  0  0
    5.4346   -2.3293    1.9857 C   0  0  0  0  0  0  0  0  0  0  0  0
    3.4292    0.3426    0.8281 N   0  0  0  0  0  0  0  0  0  0  0  0
  1  7  1  0
  1 19  1  0
  2  9  1  0
  3  8  1  0
  3 23  1  0
  4 12  1  0
  4 15  1  0
  4 24  1  0
  5 21  1  0
  5 23  2  0
  6  7  1  0
  6 10  1  0
  8 27  1  0
  9 27  1  0
 12 26  1  0
 12 29  1  0
 13 15  1  0
 13 22  1  0
 13 25  1  0
 14 18  3  0
 16 22  1  0
 17 25  1  0
 18 26  1  0
 19 24  2  0
 19 28  1  0
 20 25  1  0
 21 27  1  0
 23 29  1  0
 26 28  1  0
M  END
$$$$
