
     RDKit          3D

 18 17  0  0  0  0  0  0  0  0999 V2000
    1.3347    0.6279   -0.1382 C   0  0  0  0  0  0  0  0  0  0  0  0
    2.5938    0.5438    0.2902 C   0  0  0  0  0  0  0  0  0  0  0  0
    1.1787    2.8528    0.0838 C   0  0  0  0  0  0  0  0  0  0  0  0
    3.5259   -0.6288   -0.0010 C   0  0  0  0  0  0  0  0  0  0  0  0
    6.3035   -2.3303    1.9733 C   0  0  0  0  0  0  0  0  0  0  0  0
    8.2534    2.6555    2.8141 C   0  0  0  0  0  0  0  0  0  0  0  0
    0.6327    1.8153   -0.2205 C   0  0  0  0  0  0  0  0  0  0  0  0
    8.5928    2.4140    1.5330 O   0  0  0  0  0  0  0  0  0  0  0  0
    3.0513    1.7867    0.9060 C   0  0  0  0  0  0  0  0  0  0  0  0
    6.5396    3.4277    4.2890 N   0  0  0  0  0  0  0  0  0  0  0  0
   -0.8104    1.7221   -0.1517 O   0  0  0  0  0  0  0  0  0  0  0  0
    7.8818   -2.5544    1.4427 C   0  0  0  0  0  0  0  0  0  0  0  0
    6.0983    3.1176    2.1835 O   0  0  0  0  0  0  0  0  0  0  0  0
    3.9425   -1.4642    1.0884 C   0  0  0  0  0  0  0  0  0  0  0  0
    6.8472    3.0111    3.1110 C   0  0  0  0  0  0  0  0  0  0  0  0
    5.5226   -1.3683    1.1235 C   0  0  0  0  0  0  0  0  0  0  0  0
    2.6103    2.8359    0.5245 C   0  0  0  0  0  0  0  0  0  0  0  0
    5.2166    4.1955    4.7161 C   0  0  0  0  0  0  0  0  0  0  0  0
  1  2  2  0
  1  7  1  0
  2  4  1  0
  2  9  1  0
  3  7  1  0
  3 17  1  0
  4 14  1  0
  5 12  1  0
  5 16  1  0
  6  8  1  0
  6 15  1  0
  7 11  1  0
  9 17  1  0
 10 15  1  0
 10 18  1  0
 13 15  2  0
 14 16  1  0
M  END
$$$$
