
     RDKit          3D

 26 29  0  0  0  0  0  0  0  0999 V2000
   12.4266   31.0486   14.9070 C   0  0  0  0  0  0  0  0  0  0  0  0
   13.2540   35.4129   15.2513 C   0  0  0  0  0  0  0  0  0  0  0  0
   11.6309   36.6826   17.1149 C   0  0  0  0  0  0  0  0  0  0  0  0
   14.2119   32.5002   14.2896 C   0  0  0  0  0  0  0  0  0  0  0  0
   15.6264   33.7908   12.7350 C   0  0  0  0  0  0  0  0  0  0  0  0
   14.6993   33.6189   13.8017 C   0  0  0  0  0  0  0  0  0  0  0  0
   11.2824   35.3818   16.7019 C   0  0  0  0  0  0  0  0  0  0  0  0
   16.1071   30.9289   13.7720 C   0  0  0  0  0  0  0  0  0  0  0  0
   15.0097   31.2915   14.3305 C   0  0  0  0  0  0  0  0  0  0  0  0
   16.2977   34.6432   10.6044 C   0  0  0  0  0  0  0  0  0  0  0  0
   10.2065   34.7374   17.2192 N   0  0  0  0  0  0  0  0  0  0  0  0
   16.7950   31.5351   12.8230 C   0  0  0  0  0  0  0  0  0  0  0  0
   12.0892   34.9318   15.8123 C   0  0  0  0  0  0  0  0  0  0  0  0
   17.4752   36.2157   11.7764 C   0  0  0  0  0  0  0  0  0  0  0  0
   12.8328   32.3727   14.7990 O   0  0  0  0  0  0  0  0  0  0  0  0
   15.6398   34.9351   11.7739 C   0  0  0  0  0  0  0  0  0  0  0  0
   17.3466   35.6767   10.5083 N   0  0  0  0  0  0  0  0  0  0  0  0
    9.6988   33.4997   17.1740 N   0  0  0  0  0  0  0  0  0  0  0  0
   16.2811   35.9761   12.4728 N   0  0  0  0  0  0  0  0  0  0  0  0
   11.4041   30.4881   15.5324 C   0  0  0  0  0  0  0  0  0  0  0  0
   10.2104   32.5545   16.3632 C   0  0  0  0  0  0  0  0  0  0  0  0
   12.7673   37.2536   16.7478 C   0  0  0  0  0  0  0  0  0  0  0  0
   10.6595   31.2509   16.4369 N   0  0  0  0  0  0  0  0  0  0  0  0
   13.4857   36.7961   15.8038 C   0  0  0  0  0  0  0  0  0  0  0  0
   16.4241   32.7448   12.4540 C   0  0  0  0  0  0  0  0  0  0  0  0
   14.1393   34.9301   14.3896 C   0  0  0  0  0  0  0  0  0  0  0  0
  1 15  1  0
  1 20  2  3
  2 13  2  0
  2 24  1  0
  2 26  1  0
  3  7  1  0
  3 22  1  0
  4  6  1  0
  4  9  1  0
  4 15  1  0
  5  6  1  0
  5 16  1  0
  5 25  1  0
  6 26  2  3
  7 11  2  3
  7 13  1  0
  8  9  2  0
  8 12  1  0
 10 16  1  0
 10 17  1  0
 11 18  1  0
 12 25  2  0
 14 17  1  0
 14 19  1  0
 16 19  1  0
 18 21  1  0
 20 23  1  0
 21 23  2  3
 22 24  2  0
M  END
$$$$
