
     RDKit          3D

 25 26  0  0  0  0  0  0  0  0999 V2000
   29.5068   34.2761  103.8068 C   0  0  0  0  0  0  0  0  0  0  0  0
   24.6822   33.5309  106.9003 C   0  0  0  0  0  0  0  0  0  0  0  0
   32.1504   33.5780  101.9076 O   0  0  0  0  0  0  0  0  0  0  0  0
   25.4470   35.2941  102.4836 C   0  0  0  0  0  0  0  0  0  0  0  0
   25.2546   34.2304  103.5198 N   0  0  0  0  0  0  0  0  0  0  0  0
   30.4614   35.4601  103.9530 C   0  0  0  0  0  0  0  0  0  0  0  0
   30.1230   37.0572  103.4486 O   0  0  0  0  0  0  0  0  0  0  0  0
   25.0387   35.6838  101.3717 O   0  0  0  0  0  0  0  0  0  0  0  0
   24.0366   32.6272  105.6999 C   0  0  0  0  0  0  0  0  0  0  0  0
   31.5609   34.5272  104.9819 C   0  0  0  0  0  0  0  0  0  0  0  0
   26.0545   34.5342  104.7528 C   0  0  0  0  0  0  0  0  0  0  0  0
   24.5061   32.7215  103.9396 C   0  0  0  0  0  0  0  0  0  0  0  0
   28.2040   34.8981  103.7343 C   0  0  0  0  0  0  0  0  0  0  0  0
   25.6837   34.3830  106.4393 C   0  0  0  0  0  0  0  0  0  0  0  0
   26.7036   35.7036  102.0704 C   0  0  0  0  0  0  0  0  0  0  0  0
   24.7734   36.3373  100.5267 C   0  0  0  0  0  0  0  0  0  0  0  0
   27.3465   34.7197  104.6183 C   0  0  0  0  0  0  0  0  0  0  0  0
   23.8050   34.0246  107.7514 O   0  0  0  0  0  0  0  0  0  0  0  0
   24.3443   31.1193  106.2671 O   0  0  0  0  0  0  0  0  0  0  0  0
   30.0095   33.0799  102.9058 C   0  0  0  0  0  0  0  0  0  0  0  0
   31.3495   33.2483  103.0513 C   0  0  0  0  0  0  0  0  0  0  0  0
   32.0085   33.5859  104.1965 O   0  0  0  0  0  0  0  0  0  0  0  0
   27.6305   35.9065  103.0991 C   0  0  0  0  0  0  0  0  0  0  0  0
   23.2255   36.4002   99.6516 C   0  0  0  0  0  0  0  0  0  0  0  0
   25.0632   37.6084  101.2024 O   0  0  0  0  0  0  0  0  0  0  0  0
  1  6  1  0
  1 13  1  0
  1 20  1  0
  2  9  1  0
  2 14  1  0
  2 18  1  0
  3 21  2  0
  4  5  1  0
  4  8  1  0
  4 15  1  0
  5 11  1  0
  5 12  1  0
  6  7  1  0
  6 10  1  0
  8 16  1  0
  9 19  1  0
 10 22  1  0
 11 14  1  0
 11 17  2  0
 13 17  1  0
 13 23  1  0
 15 23  1  0
 16 24  1  0
 16 25  1  0
 20 21  1  0
 21 22  1  0
M  END
$$$$
