
     RDKit          3D

 31 32  0  0  0  0  0  0  0  0999 V2000
   25.1047   34.4869  103.4836 C   0  0  0  0  0  0  0  0  0  0  0  0
   27.5031   35.0869  104.0079 C   0  0  0  0  0  0  0  0  0  0  0  0
   30.3024   33.2497  103.0327 C   0  0  0  0  0  0  0  0  0  0  0  0
   29.9732   32.6089  102.7896 C   0  0  0  0  0  0  0  0  0  0  0  0
   31.6425   33.2692  103.2880 C   0  0  0  0  0  0  0  0  0  0  0  0
   30.0179   36.9936  103.5091 O   0  0  0  0  0  0  0  0  0  0  0  0
   29.6107   34.4948  103.6536 C   0  0  0  0  0  0  0  0  0  0  0  0
   22.8055   33.1089  106.1465 C   0  0  0  0  0  0  0  0  0  0  0  0
   32.0894   33.6008  102.0850 O   0  0  0  0  0  0  0  0  0  0  0  0
   22.6973   33.7902  107.6524 C   0  0  0  0  0  0  0  0  0  0  0  0
   25.3276   34.4460  106.0786 C   0  0  0  0  0  0  0  0  0  0  0  0
   24.7118   34.0239  104.7245 C   0  0  0  0  0  0  0  0  0  0  0  0
   23.9547   32.0296  103.8515 C   0  0  0  0  0  0  0  0  0  0  0  0
   31.3249   35.1207  104.5644 O   0  0  0  0  0  0  0  0  0  0  0  0
   23.3715   36.2137   99.5670 C   0  0  0  0  0  0  0  0  0  0  0  0
   30.2611   35.7783  103.7951 C   0  0  0  0  0  0  0  0  0  0  0  0
   23.6372   33.1470  104.9507 N   0  0  0  0  0  0  0  0  0  0  0  0
   25.2119   33.8482  107.4613 C   0  0  0  0  0  0  0  0  0  0  0  0
   25.7289   33.2446  107.1084 O   0  0  0  0  0  0  0  0  0  0  0  0
   25.1660   35.9803  101.3025 C   0  0  0  0  0  0  0  0  0  0  0  0
   25.2702   35.2161  102.4967 N   0  0  0  0  0  0  0  0  0  0  0  0
   25.4801   36.7816  100.7190 N   0  0  0  0  0  0  0  0  0  0  0  0
   31.8797   33.8340  104.7027 C   0  0  0  0  0  0  0  0  0  0  0  0
   26.3365   34.9969  103.3318 C   0  0  0  0  0  0  0  0  0  0  0  0
   24.4916   34.0906  109.6066 O   0  0  0  0  0  0  0  0  0  0  0  0
   23.3628   36.2174   99.5727 C   0  0  0  0  0  0  0  0  0  0  0  0
   24.0696   34.0787  108.3838 C   0  0  0  0  0  0  0  0  0  0  0  0
   32.6847   33.9211  105.3559 O   0  0  0  0  0  0  0  0  0  0  0  0
   24.2360   35.9849   99.9930 C   0  0  0  0  0  0  0  0  0  0  0  0
   21.6391   32.1257  105.8545 C   0  0  0  0  0  0  0  0  0  0  0  0
   28.5296   34.5316  104.2867 C   0  0  0  0  0  0  0  0  0  0  0  0
  1 12  1  0
  1 21  1  0
  1 24  2  3
  2 24  1  0
  2 31  1  0
  3  4  2  0
  3  5  1  0
  3  7  1  0
  5  9  1  0
  5 23  1  0
  6 16  2  0
  7 16  1  0
  7 31  1  0
  8 10  1  0
  8 17  1  0
  8 30  1  0
 10 27  1  0
 11 12  1  0
 11 18  1  0
 12 17  1  0
 13 17  1  0
 14 16  1  0
 14 23  1  0
 15 26  2  0
 15 29  1  0
 18 19  2  0
 18 27  1  0
 20 21  1  0
 20 22  2  0
 20 29  1  0
 23 28  1  0
 25 27  1  0
M  END
$$$$
