
     RDKit          3D

 27 26  0  0  0  0  0  0  0  0999 V2000
   26.0644   36.0504  101.3026 C   0  0  0  0  0  0  0  0  0  0  0  0
   30.7622   34.5667  104.2540 C   0  0  0  0  0  0  0  0  0  0  0  0
   24.9573   34.6119  105.7302 C   0  0  0  0  0  0  0  0  0  0  0  0
   32.2284   33.9187  105.2468 C   0  0  0  0  0  0  0  0  0  0  0  0
   22.5925   34.6708  106.6677 C   0  0  0  0  0  0  0  0  0  0  0  0
   31.6092   34.2752  105.3480 C   0  0  0  0  0  0  0  0  0  0  0  0
   25.0510   34.2028  109.4627 O   0  0  0  0  0  0  0  0  0  0  0  0
   30.2168   32.8565  102.7737 C   0  0  0  0  0  0  0  0  0  0  0  0
   24.4161   35.9684   99.8921 C   0  0  0  0  0  0  0  0  0  0  0  0
   25.2649   36.7131  100.8708 C   0  0  0  0  0  0  0  0  0  0  0  0
   26.1108   34.7404  103.6740 C   0  0  0  0  0  0  0  0  0  0  0  0
   32.2611   33.4228  101.8237 C   0  0  0  0  0  0  0  0  0  0  0  0
   24.7889   33.8635  107.9937 C   0  0  0  0  0  0  0  0  0  0  0  0
   24.4170   35.9684   99.8918 C   0  0  0  0  0  0  0  0  0  0  0  0
   32.0497   33.1753  103.2299 N   0  0  0  0  0  0  0  0  0  0  0  0
   25.1948   35.4364  102.2331 C   0  0  0  0  0  0  0  0  0  0  0  0
   23.9073   33.9515  106.7847 C   0  0  0  0  0  0  0  0  0  0  0  0
   29.3723   34.8555  104.1528 C   0  0  0  0  0  0  0  0  0  0  0  0
   27.4394   34.8278  104.2399 N   0  0  0  0  0  0  0  0  0  0  0  0
   28.3959   34.4502  104.4583 C   0  0  0  0  0  0  0  0  0  0  0  0
   25.2235   35.4019  102.2232 O   0  0  0  0  0  0  0  0  0  0  0  0
   30.0384   36.8392  103.7027 O   0  0  0  0  0  0  0  0  0  0  0  0
   31.3761   33.3623  102.9103 C   0  0  0  0  0  0  0  0  0  0  0  0
   23.9358   36.1417   98.8158 N   0  0  0  0  0  0  0  0  0  0  0  0
   29.4430   36.3110  103.7090 C   0  0  0  0  0  0  0  0  0  0  0  0
   24.9059   34.0428  104.2902 C   0  0  0  0  0  0  0  0  0  0  0  0
   25.8645   33.0733  107.8661 O   0  0  0  0  0  0  0  0  0  0  0  0
  1 10  1  0
  1 16  1  0
  2  6  1  0
  2 18  1  0
  2 23  1  0
  3 17  1  0
  3 26  1  0
  4  6  2  0
  5 17  1  0
  7 13  2  0
  8 23  1  0
  9 14  1  0
  9 24  1  0
 10 14  1  0
 11 16  1  0
 11 19  1  0
 11 26  1  0
 12 23  1  0
 13 17  1  0
 13 27  1  0
 15 23  1  0
 16 21  1  0
 18 20  1  0
 18 25  1  0
 19 20  1  0
 22 25  2  0
M  END
$$$$
