
     RDKit          3D

 35 33  0  0  0  0  0  0  0  0999 V2000
   25.2123   35.7083  101.7574 C   0  0  0  0  0  0  0  0  0  0  0  0
   25.8856   36.0934  100.6837 C   0  0  0  0  0  0  0  0  0  0  0  0
   23.4579   33.6938  107.3996 C   0  0  0  0  0  0  0  0  0  0  0  0
   22.2462   32.9476  106.9222 C   0  0  0  0  0  0  0  0  0  0  0  0
   23.8953   35.9440   99.8100 C   0  0  0  0  0  0  0  0  0  0  0  0
   27.6208   35.4518  104.2577 C   0  0  0  0  0  0  0  0  0  0  0  0
   26.9288   34.8434   97.2941 C   0  0  0  0  0  0  0  0  0  0  0  0
   30.0832   37.0793  103.4271 O   0  0  0  0  0  0  0  0  0  0  0  0
   24.6092   33.9315  106.6552 C   0  0  0  0  0  0  0  0  0  0  0  0
   23.4595   34.1856  108.8043 C   0  0  0  0  0  0  0  0  0  0  0  0
   22.1217   34.0467  109.5633 C   0  0  0  0  0  0  0  0  0  0  0  0
   25.8924   34.3701  106.6456 C   0  0  0  0  0  0  0  0  0  0  0  0
   23.6463   35.9418  100.0402 N   0  0  0  0  0  0  0  0  0  0  0  0
   26.4985   34.9445  105.0843 C   0  0  0  0  0  0  0  0  0  0  0  0
   21.0870   32.6793  107.7741 C   0  0  0  0  0  0  0  0  0  0  0  0
   32.2336   33.2346  101.7622 N   0  0  0  0  0  0  0  0  0  0  0  0
   31.6160   33.4690  102.9343 C   0  0  0  0  0  0  0  0  0  0  0  0
   29.1510   34.3919   97.5182 O   0  0  0  0  0  0  0  0  0  0  0  0
   32.5199   33.9455  105.3028 O   0  0  0  0  0  0  0  0  0  0  0  0
   26.9022   34.7097   98.1138 O   0  0  0  0  0  0  0  0  0  0  0  0
   28.8042   34.9892  104.2641 N   0  0  0  0  0  0  0  0  0  0  0  0
   29.9574   35.7375  103.8039 C   0  0  0  0  0  0  0  0  0  0  0  0
   24.3884   34.0371  104.4912 C   0  0  0  0  0  0  0  0  0  0  0  0
   25.5660   36.3045  100.9212 C   0  0  0  0  0  0  0  0  0  0  0  0
   26.9293   34.8466   97.2993 C   0  0  0  0  0  0  0  0  0  0  0  0
   26.8031   36.2218  103.1764 N   0  0  0  0  0  0  0  0  0  0  0  0
   31.0382   34.5663  103.9872 C   0  0  0  0  0  0  0  0  0  0  0  0
   25.4587   34.7475  104.1337 C   0  0  0  0  0  0  0  0  0  0  0  0
   31.7902   32.7398  103.0371 O   0  0  0  0  0  0  0  0  0  0  0  0
   31.6446   34.2207  105.3952 C   0  0  0  0  0  0  0  0  0  0  0  0
   24.5609   34.1434  109.3789 O   0  0  0  0  0  0  0  0  0  0  0  0
   21.1079   33.0532  109.0053 C   0  0  0  0  0  0  0  0  0  0  0  0
   23.9453   35.9114   99.7553 C   0  0  0  0  0  0  0  0  0  0  0  0
   25.6765   35.0662  102.8029 N   0  0  0  0  0  0  0  0  0  0  0  0
   22.4526   34.9333   99.8397 N   0  0  0  0  0  0  0  0  0  0  0  0
  1 24  1  0
  1 34  1  0
  2 24  1  0
  3  4  1  0
  3  9  2  3
  3 10  1  0
  4 15  1  0
  5 13  1  0
  5 33  3  0
  6 14  1  0
  6 21  2  3
  6 26  1  0
  7 25  2  0
  8 22  2  0
  9 12  1  0
 10 11  1  0
 10 31  2  0
 11 32  1  0
 12 14  2  3
 13 35  1  0
 14 28  1  0
 15 32  2  0
 16 17  1  0
 17 27  1  0
 17 29  2  0
 19 30  1  0
 20 25  1  0
 21 22  1  0
 22 27  1  0
 23 28  2  0
 26 34  1  0
 27 30  1  0
 28 34  1  0
M  END
$$$$
