
     RDKit          3D

 25 25  0  0  0  0  0  0  0  0999 V2000
   25.6381   34.5121  105.5633 O   0  0  0  0  0  0  0  0  0  0  0  0
   24.3570   35.8663  100.3469 C   0  0  0  0  0  0  0  0  0  0  0  0
   27.6446   35.1896  103.8076 C   0  0  0  0  0  0  0  0  0  0  0  0
   31.6786   33.7297  104.0780 C   0  0  0  0  0  0  0  0  0  0  0  0
   25.7584   34.2495  108.4389 O   0  0  0  0  0  0  0  0  0  0  0  0
   27.1701   35.7781  102.5277 C   0  0  0  0  0  0  0  0  0  0  0  0
   24.1446   35.8982   98.5389 N   0  0  0  0  0  0  0  0  0  0  0  0
   25.1316   34.7354  102.9256 C   0  0  0  0  0  0  0  0  0  0  0  0
   23.1323   36.6187   99.8348 C   0  0  0  0  0  0  0  0  0  0  0  0
   29.8974   35.8998  103.7047 C   0  0  0  0  0  0  0  0  0  0  0  0
   31.8308   32.8219  102.9396 O   0  0  0  0  0  0  0  0  0  0  0  0
   24.1312   32.9908  106.7038 C   0  0  0  0  0  0  0  0  0  0  0  0
   30.4021   32.9099  102.7501 C   0  0  0  0  0  0  0  0  0  0  0  0
   24.5723   32.5762  103.8862 C   0  0  0  0  0  0  0  0  0  0  0  0
   25.2558   36.3483  100.8541 C   0  0  0  0  0  0  0  0  0  0  0  0
   25.7144   35.9426  102.3789 C   0  0  0  0  0  0  0  0  0  0  0  0
   29.2575   33.3970  103.1199 C   0  0  0  0  0  0  0  0  0  0  0  0
   29.8010   37.0634  103.5296 O   0  0  0  0  0  0  0  0  0  0  0  0
   25.3096   33.8173  107.1691 C   0  0  0  0  0  0  0  0  0  0  0  0
   30.9219   35.0737  104.1073 N   0  0  0  0  0  0  0  0  0  0  0  0
   32.3919   33.8750  105.1485 N   0  0  0  0  0  0  0  0  0  0  0  0
   28.8489   34.6973  103.6095 N   0  0  0  0  0  0  0  0  0  0  0  0
   25.4056   37.4783  101.1185 O   0  0  0  0  0  0  0  0  0  0  0  0
   25.3810   33.7770  103.9034 C   0  0  0  0  0  0  0  0  0  0  0  0
   24.0104   32.3246  105.3372 O   0  0  0  0  0  0  0  0  0  0  0  0
  1 19  2  0
  2  9  1  0
  2 15  1  0
  3  6  1  0
  3 22  1  0
  4 11  1  0
  4 20  1  0
  4 21  2  0
  5 19  1  0
  6 16  1  0
  7  9  1  0
  8 16  1  0
  8 24  2  3
 10 18  2  0
 10 20  1  0
 10 22  1  0
 11 13  1  0
 12 19  1  0
 12 25  1  0
 13 17  1  0
 14 24  1  0
 14 25  1  0
 15 16  1  0
 15 23  1  0
 17 22  1  0
M  END
$$$$
