
     RDKit          3D

 24 24  0  0  0  0  0  0  0  0999 V2000
   28.9924   33.6571  103.2923 C   0  0  0  0  0  0  0  0  0  0  0  0
   25.5082   34.7015  103.3500 C   0  0  0  0  0  0  0  0  0  0  0  0
   29.3450   36.1985  103.7028 C   0  0  0  0  0  0  0  0  0  0  0  0
   31.1441   33.3901  102.8480 C   0  0  0  0  0  0  0  0  0  0  0  0
   24.1127   36.0392   99.9829 N   0  0  0  0  0  0  0  0  0  0  0  0
   31.5293   32.4615  103.3272 F   0  0  0  0  0  0  0  0  0  0  0  0
   31.0590   34.5972  104.2854 C   0  0  0  0  0  0  0  0  0  0  0  0
   25.1942   35.9319  102.5000 C   0  0  0  0  0  0  0  0  0  0  0  0
   30.3375   33.6111  103.2308 C   0  0  0  0  0  0  0  0  0  0  0  0
   27.0208   35.0625  103.8600 C   0  0  0  0  0  0  0  0  0  0  0  0
   25.6750   34.6363  105.9065 O   0  0  0  0  0  0  0  0  0  0  0  0
   25.0419   36.2241  100.9729 C   0  0  0  0  0  0  0  0  0  0  0  0
   24.6273   34.9818  104.8215 C   0  0  0  0  0  0  0  0  0  0  0  0
   32.0679   34.3191  104.9443 N   0  0  0  0  0  0  0  0  0  0  0  0
   28.3779   34.9994  103.6411 N   0  0  0  0  0  0  0  0  0  0  0  0
   26.0128   33.0995  107.8863 O   0  0  0  0  0  0  0  0  0  0  0  0
   32.1624   33.8582  101.8326 O   0  0  0  0  0  0  0  0  0  0  0  0
   24.0676   36.1457  104.7830 O   0  0  0  0  0  0  0  0  0  0  0  0
   24.9553   37.7169  101.0522 O   0  0  0  0  0  0  0  0  0  0  0  0
   23.4142   36.1394   99.4167 O   0  0  0  0  0  0  0  0  0  0  0  0
   25.3296   33.8927  107.3854 C   0  0  0  0  0  0  0  0  0  0  0  0
   29.6953   36.7013  103.5944 O   0  0  0  0  0  0  0  0  0  0  0  0
   30.5051   35.7437  103.9886 N   0  0  0  0  0  0  0  0  0  0  0  0
   24.2206   34.2061  107.8670 O   0  0  0  0  0  0  0  0  0  0  0  0
  1  9  1  0
  1 15  1  0
  2  8  1  0
  2 10  1  0
  2 13  1  0
  3 15  1  0
  3 22  2  0
  3 23  1  0
  4  6  1  0
  4  9  1  0
  4 17  1  0
  5 12  1  0
  5 20  1  0
  7  9  1  0
  7 14  2  0
  7 23  1  0
  8 12  1  0
 10 15  1  0
 11 13  1  0
 11 21  1  0
 12 19  1  0
 13 18  1  0
 16 21  2  0
 21 24  1  0
M  END
$$$$
