
     RDKit          3D

 23 24  0  0  0  0  0  0  0  0999 V2000
    1.5182    3.1771   -0.1961 N   0  0  0  0  0  0  0  0  0  0  0  0
    2.1109    2.0461    0.3796 C   0  0  0  0  0  0  0  0  0  0  0  0
    6.7920    2.4321    2.0942 O   0  0  0  0  0  0  0  0  0  0  0  0
    4.5130    3.1039    4.5048 O   0  0  0  0  0  0  0  0  0  0  0  0
    4.8209    4.6359    1.6408 O   0  0  0  0  0  0  0  0  0  0  0  0
    0.1723    0.8061   -0.2099 O   0  0  0  0  0  0  0  0  0  0  0  0
    7.8095   -2.4655    1.7100 C   0  0  0  0  0  0  0  0  0  0  0  0
    6.5727   -2.8634    2.2041 C   0  0  0  0  0  0  0  0  0  0  0  0
    0.2113    3.4915   -0.0940 N   0  0  0  0  0  0  0  0  0  0  0  0
    5.0101    3.7722    3.1724 P   0  0  0  0  0  0  0  0  0  0  0  0
    5.5770    4.8238    3.9367 O   0  0  0  0  0  0  0  0  0  0  0  0
    1.4454    0.7530    0.0795 C   0  0  0  0  0  0  0  0  0  0  0  0
    4.3024    1.5155    1.6099 N   0  0  0  0  0  0  0  0  0  0  0  0
    2.2280   -0.4260    0.3022 C   0  0  0  0  0  0  0  0  0  0  0  0
    8.0579   -1.1094    1.5836 C   0  0  0  0  0  0  0  0  0  0  0  0
    4.5080    0.0846    1.4432 C   0  0  0  0  0  0  0  0  0  0  0  0
    3.4127   -0.5588    0.8388 C   0  0  0  0  0  0  0  0  0  0  0  0
    5.3876    2.1912    2.2995 C   0  0  0  0  0  0  0  0  0  0  0  0
    5.5256   -2.0336    2.1184 C   0  0  0  0  0  0  0  0  0  0  0  0
    5.6733   -0.6629    1.7757 C   0  0  0  0  0  0  0  0  0  0  0  0
    3.2460    2.1047    1.0592 C   0  0  0  0  0  0  0  0  0  0  0  0
    7.0048   -0.2922    1.7262 C   0  0  0  0  0  0  0  0  0  0  0  0
    9.0205   -3.6421    1.1960 Cl  0  0  0  0  0  0  0  0  0  0  0  0
  1  2  1  0
  1  9  1  0
  2 12  1  0
  2 21  2  0
  3 18  2  0
  4 10  1  0
  5 10  1  0
  6 12  1  0
  7  8  1  0
  7 15  1  0
  7 23  1  0
  8 19  2  0
 10 11  1  0
 10 18  1  0
 12 14  2  0
 13 16  1  0
 13 18  1  0
 13 21  1  0
 14 17  1  0
 15 22  2  0
 16 17  2  0
 16 20  1  0
 19 20  1  0
 20 22  1  0
M  END
$$$$
