
     RDKit          3D

 28 28  0  0  0  0  0  0  0  0999 V2000
    9.0083   -1.5857   -0.3739 C   0  0  0  0  0  0  0  0  0  0  0  0
    6.8309    2.6718    3.5735 P   0  0  0  0  0  0  0  0  0  0  0  0
    1.7763   -2.1774    1.6053 O   0  0  0  0  0  0  0  0  0  0  0  0
    4.9434   -1.1269    0.7531 C   0  0  0  0  0  0  0  0  0  0  0  0
    5.5646   -3.1234    3.0579 C   0  0  0  0  0  0  0  0  0  0  0  0
    3.1003    2.2029    1.2938 O   0  0  0  0  0  0  0  0  0  0  0  0
    6.2388    2.8215    2.2045 O   0  0  0  0  0  0  0  0  0  0  0  0
    9.0202   -0.9019    0.9662 C   0  0  0  0  0  0  0  0  0  0  0  0
    2.7597   -1.6175    1.1611 C   0  0  0  0  0  0  0  0  0  0  0  0
    6.9681   -2.2524    2.7393 C   0  0  0  0  0  0  0  0  0  0  0  0
    2.4699    2.6260    0.1300 C   0  0  0  0  0  0  0  0  0  0  0  0
    4.2339   -3.1017    2.4770 C   0  0  0  0  0  0  0  0  0  0  0  0
    7.6171    0.2339    2.5399 O   0  0  0  0  0  0  0  0  0  0  0  0
    9.2804    0.6415    0.8930 C   0  0  0  0  0  0  0  0  0  0  0  0
    0.6693    1.1292   -0.3035 C   0  0  0  0  0  0  0  0  0  0  0  0
    4.1989   -0.2852    0.0560 C   0  0  0  0  0  0  0  0  0  0  0  0
    8.7567    1.2006    2.2708 C   0  0  0  0  0  0  0  0  0  0  0  0
    4.0758   -1.9959    1.4492 N   0  0  0  0  0  0  0  0  0  0  0  0
    7.8596   -1.0947    1.8590 C   0  0  0  0  0  0  0  0  0  0  0  0
   -0.1095    2.4173   -0.5966 N   0  0  0  0  0  0  0  0  0  0  0  0
    2.8372   -0.4801    0.3207 C   0  0  0  0  0  0  0  0  0  0  0  0
    9.3480    1.8450    0.0287 O   0  0  0  0  0  0  0  0  0  0  0  0
    8.5211   -0.6909   -1.4056 O   0  0  0  0  0  0  0  0  0  0  0  0
    7.9040    3.5255    3.9742 O   0  0  0  0  0  0  0  0  0  0  0  0
    9.6135    2.4851    2.4537 C   0  0  0  0  0  0  0  0  0  0  0  0
    2.1243    1.5154   -0.7749 C   0  0  0  0  0  0  0  0  0  0  0  0
    6.3280    1.6732    4.5531 O   0  0  0  0  0  0  0  0  0  0  0  0
    1.7366    0.3365   -0.0876 C   0  0  0  0  0  0  0  0  0  0  0  0
  1  8  1  0
  1 23  1  0
  2  7  1  0
  2 24  1  0
  2 27  1  0
  3  9  2  0
  4 16  1  0
  4 18  1  0
  5 10  2  3
  5 12  1  0
  6 11  1  0
  8 14  1  0
  8 19  1  0
  9 18  1  0
  9 21  1  0
 10 19  1  0
 11 26  1  0
 12 18  1  0
 13 17  1  0
 13 19  1  0
 14 17  1  0
 14 22  1  0
 15 20  1  0
 15 28  1  0
 16 21  1  0
 17 25  1  0
 21 28  1  0
 26 28  1  0
M  END
$$$$
