
     RDKit          3D

 31 32  0  0  0  0  0  0  0  0999 V2000
    8.8482   -0.4918   -0.0287 C   0  0  0  0  0  0  0  0  0  0  0  0
    3.3035   -2.2190    2.0996 C   0  0  0  0  0  0  0  0  0  0  0  0
    2.7955   -4.1224    3.4721 O   0  0  0  0  0  0  0  0  0  0  0  0
    0.1454    2.3078   -0.4523 C   0  0  0  0  0  0  0  0  0  0  0  0
    2.3192    3.0326    0.1787 C   0  0  0  0  0  0  0  0  0  0  0  0
    3.1482   -0.9187    1.4789 N   0  0  0  0  0  0  0  0  0  0  0  0
    4.6457    2.5967    1.9996 C   0  0  0  0  0  0  0  0  0  0  0  0
    7.5257   -1.1727    0.5374 C   0  0  0  0  0  0  0  0  0  0  0  0
    5.3763    4.8292    4.0815 O   0  0  0  0  0  0  0  0  0  0  0  0
    5.4866    3.6339    4.0998 C   0  0  0  0  0  0  0  0  0  0  0  0
    1.7524    0.6970    0.2302 C   0  0  0  0  0  0  0  0  0  0  0  0
    9.5566    1.4925    1.2751 O   0  0  0  0  0  0  0  0  0  0  0  0
    2.6549    1.7723    0.5501 C   0  0  0  0  0  0  0  0  0  0  0  0
    7.8749   -2.3617    1.4423 C   0  0  0  0  0  0  0  0  0  0  0  0
    1.0615   -2.7709    2.6047 O   0  0  0  0  0  0  0  0  0  0  0  0
    7.0140    2.8632    2.3851 O   0  0  0  0  0  0  0  0  0  0  0  0
   10.3268   -1.1749    1.8173 C   0  0  0  0  0  0  0  0  0  0  0  0
    3.9983    0.1994    1.8420 O   0  0  0  0  0  0  0  0  0  0  0  0
    3.8679    1.5094    1.3186 C   0  0  0  0  0  0  0  0  0  0  0  0
    5.8740    1.2011    3.6754 C   0  0  0  0  0  0  0  0  0  0  0  0
    4.8862    0.1173    3.0627 C   0  0  0  0  0  0  0  0  0  0  0  0
    9.6014    0.1312    1.2135 C   0  0  0  0  0  0  0  0  0  0  0  0
    4.7057   -2.6723    2.3357 C   0  0  0  0  0  0  0  0  0  0  0  0
    9.2843   -2.2592    2.0893 C   0  0  0  0  0  0  0  0  0  0  0  0
    9.8524   -3.6927    2.0622 C   0  0  0  0  0  0  0  0  0  0  0  0
    5.2241    3.3290    5.3446 O   0  0  0  0  0  0  0  0  0  0  0  0
    2.3028   -3.0768    2.7862 C   0  0  0  0  0  0  0  0  0  0  0  0
    2.1139   -0.7227    0.5150 C   0  0  0  0  0  0  0  0  0  0  0  0
    1.0694    3.2646   -0.3574 N   0  0  0  0  0  0  0  0  0  0  0  0
    5.7876    2.6041    2.9810 C   0  0  0  0  0  0  0  0  0  0  0  0
    0.3674    1.0139   -0.1243 C   0  0  0  0  0  0  0  0  0  0  0  0
  1  8  1  0
  1 22  1  0
  2  6  1  0
  2 23  1  0
  2 27  1  0
  3 27  2  0
  4 29  2  0
  4 31  1  0
  5 13  2  0
  5 29  1  0
  6 18  1  0
  6 28  1  0
  7 19  2  3
  7 30  1  0
  8 14  1  0
  9 10  2  0
 10 26  1  0
 10 30  1  0
 11 13  1  0
 11 28  1  0
 11 31  1  0
 12 22  1  0
 13 19  1  0
 14 24  1  0
 15 27  1  0
 16 30  1  0
 17 22  1  0
 17 24  1  0
 18 19  1  0
 20 21  1  0
 20 30  1  0
 24 25  1  0
M  END
$$$$
