
     RDKit          3D

 26 28  0  0  0  0  0  0  0  0999 V2000
    4.3772    1.9622    2.1846 C   0  0  0  0  0  0  0  0  0  0  0  0
    5.4494    3.7278    3.7488 O   0  0  0  0  0  0  0  0  0  0  0  0
   -0.3749    3.2532   -0.4960 C   0  0  0  0  0  0  0  0  0  0  0  0
    5.3143    1.0241    2.9738 C   0  0  0  0  0  0  0  0  0  0  0  0
    7.6237   -1.6392    1.4332 C   0  0  0  0  0  0  0  0  0  0  0  0
    1.8321    2.3895   -0.0203 C   0  0  0  0  0  0  0  0  0  0  0  0
    4.3300   -0.4272    1.3224 C   0  0  0  0  0  0  0  0  0  0  0  0
    8.1042   -4.0547    2.4900 C   0  0  0  0  0  0  0  0  0  0  0  0
    2.6811    1.1951    0.1528 C   0  0  0  0  0  0  0  0  0  0  0  0
    3.6531    0.9542    1.2155 C   0  0  0  0  0  0  0  0  0  0  0  0
    4.8067    3.4344    2.5082 C   0  0  0  0  0  0  0  0  0  0  0  0
    4.8609    4.2670    1.6110 O   0  0  0  0  0  0  0  0  0  0  0  0
    5.3526   -2.6416    2.1213 C   0  0  0  0  0  0  0  0  0  0  0  0
    5.5264   -0.2630    2.2385 N   0  0  0  0  0  0  0  0  0  0  0  0
    0.5483    2.1510   -0.5042 N   0  0  0  0  0  0  0  0  0  0  0  0
    7.8556    3.3583    4.1631 O   0  0  0  0  0  0  0  0  0  0  0  0
    8.4726   -2.9086    1.5798 C   0  0  0  0  0  0  0  0  0  0  0  0
    2.1491   -0.0851   -0.3861 C   0  0  0  0  0  0  0  0  0  0  0  0
    6.1392    1.4914    4.1525 C   0  0  0  0  0  0  0  0  0  0  0  0
   -0.1833    1.0854   -0.2954 O   0  0  0  0  0  0  0  0  0  0  0  0
    6.5650    2.9203    4.1422 C   0  0  0  0  0  0  0  0  0  0  0  0
    9.3947   -3.0955    0.5305 C   0  0  0  0  0  0  0  0  0  0  0  0
    6.3645   -1.5030    2.2821 C   0  0  0  0  0  0  0  0  0  0  0  0
    4.0672   -1.9696    1.5268 C   0  0  0  0  0  0  0  0  0  0  0  0
    1.8255   -1.0745    0.4835 O   0  0  0  0  0  0  0  0  0  0  0  0
    2.6379    3.6344   -0.2334 N   0  0  0  0  0  0  0  0  0  0  0  0
  1  4  1  0
  1 10  1  0
  1 11  1  0
  2 11  1  0
  2 21  1  0
  3 15  1  0
  4 14  1  0
  4 19  1  0
  5 17  2  3
  5 23  1  0
  6  9  1  0
  6 15  1  0
  6 26  2  0
  7 10  1  0
  7 14  1  0
  7 24  1  0
  8 17  1  0
  9 10  1  0
  9 18  1  0
 11 12  2  0
 13 23  1  0
 13 24  1  0
 14 23  1  0
 15 20  1  0
 16 21  2  0
 17 22  1  0
 18 25  1  0
 19 21  1  0
M  END
$$$$
