
     RDKit          3D

 25 26  0  0  0  0  0  0  0  0999 V2000
    3.4117    3.8684    0.5146 O   0  0  0  0  0  0  0  0  0  0  0  0
    5.4576   -0.9129    1.9648 N   0  0  0  0  0  0  0  0  0  0  0  0
    2.9840    1.6631    0.3922 C   0  0  0  0  0  0  0  0  0  0  0  0
    6.9696    3.1885    5.0895 O   0  0  0  0  0  0  0  0  0  0  0  0
    6.5040   -1.8571    2.0229 C   0  0  0  0  0  0  0  0  0  0  0  0
    2.5883    2.9228    0.1960 C   0  0  0  0  0  0  0  0  0  0  0  0
    6.5004   -2.8965    2.9114 C   0  0  0  0  0  0  0  0  0  0  0  0
    4.0848   -0.5490    0.0346 C   0  0  0  0  0  0  0  0  0  0  0  0
    5.0530    0.4301    2.4336 C   0  0  0  0  0  0  0  0  0  0  0  0
    8.3155   -3.0392    1.6173 N   0  0  0  0  0  0  0  0  0  0  0  0
    0.5296    2.0003   -0.4274 C   0  0  0  0  0  0  0  0  0  0  0  0
    9.5076   -3.5828    0.9616 C   0  0  0  0  0  0  0  0  0  0  0  0
    6.0282    0.9991    3.3825 C   0  0  0  0  0  0  0  0  0  0  0  0
    7.5813   -1.8429    1.2156 N   0  0  0  0  0  0  0  0  0  0  0  0
    4.2705   -1.4464    1.2036 C   0  0  0  0  0  0  0  0  0  0  0  0
    2.8990    0.3488    0.1550 C   0  0  0  0  0  0  0  0  0  0  0  0
    6.5475    3.3379    2.5353 O   0  0  0  0  0  0  0  0  0  0  0  0
   -0.8305    3.6085   -1.3212 O   0  0  0  0  0  0  0  0  0  0  0  0
    6.0324    2.8963    3.7815 P   0  0  0  0  0  0  0  0  0  0  0  0
   -0.8588    2.4614   -0.7836 C   0  0  0  0  0  0  0  0  0  0  0  0
    4.6306    3.6980    4.1141 O   0  0  0  0  0  0  0  0  0  0  0  0
    1.3534    3.1189   -0.3709 N   0  0  0  0  0  0  0  0  0  0  0  0
    7.6961   -3.6498    2.6256 C   0  0  0  0  0  0  0  0  0  0  0  0
    0.6753    0.7167   -0.1945 N   0  0  0  0  0  0  0  0  0  0  0  0
    1.6951   -0.1370    0.0076 C   0  0  0  0  0  0  0  0  0  0  0  0
  1  6  2  0
  2  5  1  0
  2  9  1  0
  2 15  1  0
  3  6  1  0
  3 16  1  0
  4 19  1  0
  5  7  1  0
  5 14  2  0
  6 22  1  0
  7 23  1  0
  8 15  1  0
  8 16  1  0
  9 13  1  0
 10 12  1  0
 10 14  1  0
 10 23  1  0
 11 20  1  0
 11 22  1  0
 11 24  2  0
 13 19  1  0
 16 25  2  0
 17 19  1  0
 18 20  1  0
 19 21  1  0
 24 25  1  0
M  END
$$$$
