
     RDKit          3D

 21 22  0  0  0  0  0  0  0  0999 V2000
   12.3941   60.6317   80.8597 C   0  0  0  0  0  0  0  0  0  0  0  0
   11.7645   54.8012   82.5470 N   0  0  0  0  0  0  0  0  0  0  0  0
   13.4660   60.8517   81.6311 O   0  0  0  0  0  0  0  0  0  0  0  0
   14.2790   56.5111   80.7766 C   0  0  0  0  0  0  0  0  0  0  0  0
   13.4050   58.4308   80.0179 C   0  0  0  0  0  0  0  0  0  0  0  0
   14.0103   55.3651   83.0643 N   0  0  0  0  0  0  0  0  0  0  0  0
   15.1002   56.1681   82.9068 C   0  0  0  0  0  0  0  0  0  0  0  0
   13.0674   57.1124   80.3487 C   0  0  0  0  0  0  0  0  0  0  0  0
   15.2862   57.1913   80.3603 C   0  0  0  0  0  0  0  0  0  0  0  0
   11.2917   59.3220   79.1677 O   0  0  0  0  0  0  0  0  0  0  0  0
   13.3256   60.3810   78.5321 C   0  0  0  0  0  0  0  0  0  0  0  0
   13.1205   56.0236   80.9899 C   0  0  0  0  0  0  0  0  0  0  0  0
    9.6307   55.6832   82.9536 O   0  0  0  0  0  0  0  0  0  0  0  0
   10.2120   55.2599   80.7995 O   0  0  0  0  0  0  0  0  0  0  0  0
   10.4920   55.3086   82.0410 C   0  0  0  0  0  0  0  0  0  0  0  0
   12.5836   59.6762   79.6598 C   0  0  0  0  0  0  0  0  0  0  0  0
   12.9760   55.3895   82.2479 C   0  0  0  0  0  0  0  0  0  0  0  0
   15.8900   56.5643   84.0141 C   0  0  0  0  0  0  0  0  0  0  0  0
   14.8340   58.4391   79.8875 C   0  0  0  0  0  0  0  0  0  0  0  0
   11.0906   60.6752   81.5918 C   0  0  0  0  0  0  0  0  0  0  0  0
   15.2060   56.8413   81.6424 C   0  0  0  0  0  0  0  0  0  0  0  0
  1  3  1  0
  1 16  1  0
  1 20  1  0
  2 15  1  0
  2 17  2  3
  4  9  1  0
  4 12  1  0
  4 21  1  0
  5  8  1  0
  5 16  1  0
  5 19  1  0
  6  7  1  0
  6 17  1  0
  7 18  1  0
  7 21  1  0
  8 12  1  0
  9 19  1  0
 10 16  1  0
 11 16  1  0
 12 17  1  0
 13 15  2  0
 14 15  1  0
M  END
$$$$
