
     RDKit          3D

 23 25  0  0  0  0  0  0  0  0999 V2000
   14.3987   54.5242   83.0711 N   0  0  0  0  0  0  0  0  0  0  0  0
   11.1061   59.6832   79.6101 C   0  0  0  0  0  0  0  0  0  0  0  0
   15.7570   56.4401   83.8683 C   0  0  0  0  0  0  0  0  0  0  0  0
   13.2370   55.0707   82.6607 C   0  0  0  0  0  0  0  0  0  0  0  0
   10.0871   58.9805   82.4257 O   0  0  0  0  0  0  0  0  0  0  0  0
   13.1839   56.0175   81.5065 C   0  0  0  0  0  0  0  0  0  0  0  0
   11.9300   56.3951   81.0649 C   0  0  0  0  0  0  0  0  0  0  0  0
    7.8542   58.7055   82.0165 O   0  0  0  0  0  0  0  0  0  0  0  0
   10.1678   59.0094   78.9718 O   0  0  0  0  0  0  0  0  0  0  0  0
    8.9953   60.3889   80.7467 C   0  0  0  0  0  0  0  0  0  0  0  0
   10.4833   60.8393   80.4176 C   0  0  0  0  0  0  0  0  0  0  0  0
   15.4139   54.9070   83.8804 C   0  0  0  0  0  0  0  0  0  0  0  0
    9.0129   59.1474   81.6210 C   0  0  0  0  0  0  0  0  0  0  0  0
   14.9647   58.7118   79.2730 C   0  0  0  0  0  0  0  0  0  0  0  0
   12.8449   58.1986   79.8825 C   0  0  0  0  0  0  0  0  0  0  0  0
   14.1316   57.7638   80.0198 C   0  0  0  0  0  0  0  0  0  0  0  0
   10.3368   61.8940   79.2913 O   0  0  0  0  0  0  0  0  0  0  0  0
   12.5993   59.5070   79.3699 N   0  0  0  0  0  0  0  0  0  0  0  0
   11.7815   57.5329   80.3004 C   0  0  0  0  0  0  0  0  0  0  0  0
   12.1504   54.8184   83.3549 O   0  0  0  0  0  0  0  0  0  0  0  0
   13.9907   59.9233   78.9326 C   0  0  0  0  0  0  0  0  0  0  0  0
   10.5390   58.2425   79.9776 C   0  0  0  0  0  0  0  0  0  0  0  0
   14.3106   56.6145   80.8756 C   0  0  0  0  0  0  0  0  0  0  0  0
  1  4  1  0
  1 12  1  0
  2  9  1  0
  2 11  1  0
  2 18  1  0
  3 12  1  0
  4  6  1  0
  4 20  2  0
  5 13  2  0
  6  7  1  0
  6 23  1  0
  7 19  1  0
  8 13  1  0
  9 22  1  0
 10 11  1  0
 10 13  1  0
 11 17  1  0
 14 16  1  0
 14 21  1  0
 15 16  1  0
 15 18  1  0
 15 19  2  0
 16 23  2  0
 18 21  1  0
 19 22  1  0
M  END
$$$$
