
     RDKit          3D

 27 29  0  0  0  0  0  0  0  0999 V2000
   33.6192   56.6645   43.1088 C   0  0  0  0  0  0  0  0  0  0  0  0
   37.6398   49.4307   43.4892 C   0  0  0  0  0  0  0  0  0  0  0  0
   39.6969   46.4712   37.2048 C   0  0  0  0  0  0  0  0  0  0  0  0
   36.4867   51.6235   43.4628 C   0  0  0  0  0  0  0  0  0  0  0  0
   38.3168   47.1023   43.0077 C   0  0  0  0  0  0  0  0  0  0  0  0
   32.3732   56.4878   45.5411 C   0  0  0  0  0  0  0  0  0  0  0  0
   39.4057   47.6192   39.4109 C   0  0  0  0  0  0  0  0  0  0  0  0
   36.5370   51.5500   42.1158 C   0  0  0  0  0  0  0  0  0  0  0  0
   35.7607   52.1723   46.4534 C   0  0  0  0  0  0  0  0  0  0  0  0
   38.7302   47.0059   41.7365 C   0  0  0  0  0  0  0  0  0  0  0  0
   30.8127   58.3150   44.9184 C   0  0  0  0  0  0  0  0  0  0  0  0
   32.5150   57.4636   43.3688 C   0  0  0  0  0  0  0  0  0  0  0  0
   35.2625   55.0919   43.8032 N   0  0  0  0  0  0  0  0  0  0  0  0
   35.4706   50.8751   45.9203 N   0  0  0  0  0  0  0  0  0  0  0  0
   38.8973   47.5633   40.7064 C   0  0  0  0  0  0  0  0  0  0  0  0
   35.6517   53.2513   45.5388 C   0  0  0  0  0  0  0  0  0  0  0  0
   36.5290   50.1452   45.4639 O   0  0  0  0  0  0  0  0  0  0  0  0
   34.0930   55.7661   44.0413 C   0  0  0  0  0  0  0  0  0  0  0  0
   37.8768   48.2254   43.7278 C   0  0  0  0  0  0  0  0  0  0  0  0
   37.0174   50.4817   44.1553 C   0  0  0  0  0  0  0  0  0  0  0  0
   38.7096   47.0706   38.1968 C   0  0  0  0  0  0  0  0  0  0  0  0
   35.9694   52.7856   44.0831 C   0  0  0  0  0  0  0  0  0  0  0  0
   33.4525   55.6731   45.2628 C   0  0  0  0  0  0  0  0  0  0  0  0
   36.0455   52.5610   41.3165 C   0  0  0  0  0  0  0  0  0  0  0  0
   35.5916   53.8727   43.2252 C   0  0  0  0  0  0  0  0  0  0  0  0
   31.9430   57.3728   44.6082 C   0  0  0  0  0  0  0  0  0  0  0  0
   35.6037   53.7314   41.8946 C   0  0  0  0  0  0  0  0  0  0  0  0
  1 12  1  0
  1 18  2  0
  2 19  2  3
  2 20  1  0
  3 21  1  0
  4  8  2  0
  4 20  1  0
  4 22  1  0
  5 10  1  0
  5 19  1  0
  6 23  2  0
  6 26  1  0
  7 15  1  0
  7 21  1  0
  8 24  1  0
  9 14  1  0
  9 16  1  0
 10 15  2  3
 11 26  1  0
 12 26  2  0
 13 18  1  0
 13 25  1  0
 14 17  1  0
 16 22  1  0
 17 20  1  0
 18 23  1  0
 22 25  1  0
 24 27  1  0
 25 27  2  0
M  END
$$$$
