
     RDKit          3D

 32 32  0  0  0  0  0  0  0  0999 V2000
   34.2078   51.5074   42.0791 C   0  0  0  0  0  0  0  0  0  0  0  0
   32.9476   50.9152   35.7430 O   0  0  0  0  0  0  0  0  0  0  0  0
   34.6913   51.5674   43.6932 C   0  0  0  0  0  0  0  0  0  0  0  0
   32.3899   58.3203   45.5760 C   0  0  0  0  0  0  0  0  0  0  0  0
   39.7462   56.0170   41.5823 C   0  0  0  0  0  0  0  0  0  0  0  0
   32.2836   51.7485   36.6267 C   0  0  0  0  0  0  0  0  0  0  0  0
   37.0334   54.6205   43.7542 C   0  0  0  0  0  0  0  0  0  0  0  0
   36.8381   53.0096   42.1071 C   0  0  0  0  0  0  0  0  0  0  0  0
   38.8338   55.9370   42.7255 O   0  0  0  0  0  0  0  0  0  0  0  0
   35.0697   53.0267   43.9675 N   0  0  0  0  0  0  0  0  0  0  0  0
   33.1780   52.3205   37.6418 N   0  0  0  0  0  0  0  0  0  0  0  0
   37.4474   49.7308   44.7534 C   0  0  0  0  0  0  0  0  0  0  0  0
   38.8071   45.9717   43.4334 O   0  0  0  0  0  0  0  0  0  0  0  0
   38.2285   48.9399   45.6209 C   0  0  0  0  0  0  0  0  0  0  0  0
   33.3920   56.4164   43.4415 C   0  0  0  0  0  0  0  0  0  0  0  0
   38.5200   45.6035   42.0938 C   0  0  0  0  0  0  0  0  0  0  0  0
   33.7570   54.7159   45.3415 C   0  0  0  0  0  0  0  0  0  0  0  0
   37.7541   48.1466   42.9674 C   0  0  0  0  0  0  0  0  0  0  0  0
   32.8076   57.0453   45.7963 N   0  0  0  0  0  0  0  0  0  0  0  0
   33.1419   55.9854   44.9179 C   0  0  0  0  0  0  0  0  0  0  0  0
   36.2597   53.5217   43.3320 C   0  0  0  0  0  0  0  0  0  0  0  0
   33.1392   52.3654   38.9693 C   0  0  0  0  0  0  0  0  0  0  0  0
   36.7865   50.9658   45.3344 C   0  0  0  0  0  0  0  0  0  0  0  0
   38.6883   47.6761   45.1445 C   0  0  0  0  0  0  0  0  0  0  0  0
   33.6868   52.0739   40.1498 C   0  0  0  0  0  0  0  0  0  0  0  0
   38.4066   47.2476   43.8524 C   0  0  0  0  0  0  0  0  0  0  0  0
   34.5297   53.4910   45.2492 C   0  0  0  0  0  0  0  0  0  0  0  0
   31.0787   51.9639   36.5934 O   0  0  0  0  0  0  0  0  0  0  0  0
   38.0130   54.9067   42.7494 C   0  0  0  0  0  0  0  0  0  0  0  0
   35.1899   50.8696   45.0888 C   0  0  0  0  0  0  0  0  0  0  0  0
   37.2734   49.3446   43.4246 C   0  0  0  0  0  0  0  0  0  0  0  0
   37.9293   53.8854   41.7323 C   0  0  0  0  0  0  0  0  0  0  0  0
  1  3  1  0
  2  6  2  0
  3 10  1  0
  3 30  1  0
  4 19  1  0
  5  9  1  0
  6 11  1  0
  6 28  1  0
  7 21  1  0
  7 29  1  0
  8 21  1  0
  8 32  1  0
  9 29  1  0
 10 21  1  0
 10 27  1  0
 11 22  1  0
 12 14  1  0
 12 23  1  0
 12 31  2  0
 13 16  1  0
 13 26  1  0
 14 24  2  0
 15 20  1  0
 17 20  2  0
 17 27  2  0
 18 26  2  0
 18 31  1  0
 19 20  1  0
 22 25  2  0
 23 30  1  0
 24 26  1  0
 29 32  1  0
M  END
$$$$
