
     RDKit          3D

 12 13  0  0  0  0  0  0  0  0999 V2000
   13.8783   34.5458   13.7368 C   0  0  0  0  0  0  0  0  0  0  0  0
   11.2128   34.7460   16.8556 N   0  0  0  0  0  0  0  0  0  0  0  0
   14.6861   34.3361   12.1938 S   0  0  0  0  0  0  0  0  0  0  0  0
   12.2983   34.8928   15.9743 C   0  0  0  0  0  0  0  0  0  0  0  0
   13.3681   33.4773   14.3876 N   0  0  0  0  0  0  0  0  0  0  0  0
   13.7910   35.8229   14.2558 C   0  0  0  0  0  0  0  0  0  0  0  0
   12.7756   37.1711   15.8242 O   0  0  0  0  0  0  0  0  0  0  0  0
   12.5541   33.6344   15.4461 C   0  0  0  0  0  0  0  0  0  0  0  0
   10.7682   33.3562   16.9082 C   0  0  0  0  0  0  0  0  0  0  0  0
   12.9899   36.0229   15.3738 C   0  0  0  0  0  0  0  0  0  0  0  0
   11.7421   32.6977   16.0775 N   0  0  0  0  0  0  0  0  0  0  0  0
    9.8842   32.9061   17.3373 N   0  0  0  0  0  0  0  0  0  0  0  0
  1  3  2  0
  1  5  1  0
  1  6  1  0
  2  4  1  0
  2  9  1  0
  4  8  1  0
  4 10  1  0
  5  8  2  0
  6 10  1  0
  7 10  2  0
  8 11  1  0
  9 11  1  0
  9 12  2  0
M  END
$$$$
