
     RDKit          3D

 20 21  0  0  0  0  0  0  0  0999 V2000
   17.4621   34.6648   12.8217 C   0  0  0  0  0  0  0  0  0  0  0  0
   10.1813   36.3864   17.7930 N   0  0  0  0  0  0  0  0  0  0  0  0
   12.5263   34.4053   15.6826 C   0  0  0  0  0  0  0  0  0  0  0  0
   12.7331   33.0297   15.4278 C   0  0  0  0  0  0  0  0  0  0  0  0
   10.5570   32.3725   16.3755 N   0  0  0  0  0  0  0  0  0  0  0  0
   12.1869   36.9025   17.3023 O   0  0  0  0  0  0  0  0  0  0  0  0
   14.8135   34.9651   11.1595 C   0  0  0  0  0  0  0  0  0  0  0  0
   15.9747   35.1747   12.2616 C   0  0  0  0  0  0  0  0  0  0  0  0
   11.7400   32.0757   15.7129 C   0  0  0  0  0  0  0  0  0  0  0  0
   10.3737   33.6059   16.8817 C   0  0  0  0  0  0  0  0  0  0  0  0
   11.4402   34.6642   16.5774 C   0  0  0  0  0  0  0  0  0  0  0  0
   13.3503   35.3144   14.9506 C   0  0  0  0  0  0  0  0  0  0  0  0
   13.0976   36.7968   14.6445 O   0  0  0  0  0  0  0  0  0  0  0  0
   15.3103   35.7003   13.4891 N   0  0  0  0  0  0  0  0  0  0  0  0
   13.9433   32.6264   14.8692 C   0  0  0  0  0  0  0  0  0  0  0  0
   14.4596   34.9081   14.2384 C   0  0  0  0  0  0  0  0  0  0  0  0
    9.4494   33.8399   17.5298 O   0  0  0  0  0  0  0  0  0  0  0  0
   15.6753   35.2173    9.8709 C   0  0  0  0  0  0  0  0  0  0  0  0
   11.2175   36.0879   17.1688 C   0  0  0  0  0  0  0  0  0  0  0  0
   14.7808   33.5332   14.3298 C   0  0  0  0  0  0  0  0  0  0  0  0
  1  8  1  0
  2 19  1  0
  3  4  1  0
  3 11  1  0
  3 12  1  0
  4  9  1  0
  4 15  1  0
  5  9  2  0
  5 10  1  0
  6 19  2  0
  7  8  1  0
  7 18  1  0
  8 14  1  0
 10 11  1  0
 10 17  2  0
 11 19  1  0
 12 13  1  0
 12 16  2  0
 14 16  1  0
 15 20  2  0
 16 20  1  0
M  END
$$$$
