
     RDKit          3D

 15 17  0  0  0  0  0  0  0  0999 V2000
   12.2845   36.4016   17.3153 N   0  0  0  0  0  0  0  0  0  0  0  0
   15.5152   35.3682   11.1915 N   0  0  0  0  0  0  0  0  0  0  0  0
   12.3088   35.2266   16.2292 C   0  0  0  0  0  0  0  0  0  0  0  0
   10.1936   32.3724   16.7884 N   0  0  0  0  0  0  0  0  0  0  0  0
   14.2098   34.9210   11.7183 C   0  0  0  0  0  0  0  0  0  0  0  0
   10.5345   33.5483   17.1021 C   0  0  0  0  0  0  0  0  0  0  0  0
   13.0755   35.4618   15.2162 N   0  0  0  0  0  0  0  0  0  0  0  0
   13.3875   34.4822   14.3734 C   0  0  0  0  0  0  0  0  0  0  0  0
   15.7509   34.8552   13.4627 C   0  0  0  0  0  0  0  0  0  0  0  0
   12.8442   33.2567   14.5632 N   0  0  0  0  0  0  0  0  0  0  0  0
   11.9739   33.0312   15.5594 C   0  0  0  0  0  0  0  0  0  0  0  0
   14.3378   34.8427   13.1571 C   0  0  0  0  0  0  0  0  0  0  0  0
   11.1936   31.9403   15.8406 N   0  0  0  0  0  0  0  0  0  0  0  0
   11.5708   33.9763   16.4301 C   0  0  0  0  0  0  0  0  0  0  0  0
   16.4701   35.4764   12.3184 C   0  0  0  0  0  0  0  0  0  0  0  0
  1  3  2  0
  2  5  1  0
  2 15  1  0
  3  7  1  0
  3 14  1  0
  4  6  1  0
  4 13  1  0
  5 12  1  0
  6 14  1  0
  7  8  2  0
  8 10  1  0
  8 12  1  0
  9 12  1  0
  9 15  1  0
 10 11  1  0
 11 13  1  0
 11 14  2  0
M  END
$$$$
