
     RDKit          3D

 17 18  0  0  0  0  0  0  0  0999 V2000
   12.7482   35.4502   16.1623 C   0  0  0  0  0  0  0  0  0  0  0  0
   13.0307   35.9740   13.5986 O   0  0  0  0  0  0  0  0  0  0  0  0
   14.5151   35.5772   10.9624 N   0  0  0  0  0  0  0  0  0  0  0  0
   15.8171   34.9765   11.0947 C   0  0  0  0  0  0  0  0  0  0  0  0
   16.1012   33.9852   13.5255 S   0  0  0  0  0  0  0  0  0  0  0  0
    9.9535   32.4137   16.8575 C   0  0  0  0  0  0  0  0  0  0  0  0
    9.5726   33.6804   17.3015 C   0  0  0  0  0  0  0  0  0  0  0  0
   11.0099   32.0301   16.2117 C   0  0  0  0  0  0  0  0  0  0  0  0
   12.0097   33.0304   15.9744 C   0  0  0  0  0  0  0  0  0  0  0  0
   12.1882   36.7884   16.8549 C   0  0  0  0  0  0  0  0  0  0  0  0
   10.5823   36.2832   17.4160 C   0  0  0  0  0  0  0  0  0  0  0  0
   14.3198   34.0903   13.3820 C   0  0  0  0  0  0  0  0  0  0  0  0
   16.5173   35.2798   12.4119 C   0  0  0  0  0  0  0  0  0  0  0  0
   11.8683   34.3020   16.3536 C   0  0  0  0  0  0  0  0  0  0  0  0
   13.6539   35.3028   14.0518 C   0  0  0  0  0  0  0  0  0  0  0  0
   10.5653   34.6924   17.0262 C   0  0  0  0  0  0  0  0  0  0  0  0
   13.8717   35.3754   15.4515 N   0  0  0  0  0  0  0  0  0  0  0  0
  1 10  1  0
  1 14  2  0
  1 17  1  0
  2 15  2  0
  3  4  1  0
  4 13  1  0
  5 12  1  0
  5 13  1  0
  6  7  1  0
  6  8  2  0
  7 16  1  0
  8  9  1  0
  9 14  1  0
 10 11  1  0
 11 16  1  0
 12 15  1  0
 14 16  1  0
 15 17  1  0
M  END
$$$$
