
     RDKit          3D

 27 30  0  0  0  0  0  0  0  0999 V2000
   14.7917   35.2551   11.8991 C   0  0  0  0  0  0  0  0  0  0  0  0
   12.6353   33.4722   15.6163 C   0  0  0  0  0  0  0  0  0  0  0  0
   10.4665   35.7692   17.2557 N   0  0  0  0  0  0  0  0  0  0  0  0
   13.9291   31.4455   14.2244 C   0  0  0  0  0  0  0  0  0  0  0  0
   14.5282   30.3305   13.7787 C   0  0  0  0  0  0  0  0  0  0  0  0
   16.3876   34.1115   13.5594 C   0  0  0  0  0  0  0  0  0  0  0  0
   13.2015   35.5013   11.8354 C   0  0  0  0  0  0  0  0  0  0  0  0
   17.7142   34.1889   13.0768 C   0  0  0  0  0  0  0  0  0  0  0  0
   15.4647   35.2266   10.5199 C   0  0  0  0  0  0  0  0  0  0  0  0
   15.6819   35.2439   13.0383 N   0  0  0  0  0  0  0  0  0  0  0  0
   12.9117   35.7182   15.8346 C   0  0  0  0  0  0  0  0  0  0  0  0
   15.8270   30.4232   13.3078 C   0  0  0  0  0  0  0  0  0  0  0  0
   12.1902   34.6084   16.1845 C   0  0  0  0  0  0  0  0  0  0  0  0
   11.7322   32.3823   16.0364 C   0  0  0  0  0  0  0  0  0  0  0  0
   13.9631   35.2263   14.9773 N   0  0  0  0  0  0  0  0  0  0  0  0
   14.5869   32.6699   14.3159 C   0  0  0  0  0  0  0  0  0  0  0  0
   10.8843   34.5052   16.8481 C   0  0  0  0  0  0  0  0  0  0  0  0
   12.4348   36.9480   16.4620 C   0  0  0  0  0  0  0  0  0  0  0  0
    9.6605   32.6301   17.0368 O   0  0  0  0  0  0  0  0  0  0  0  0
   17.8536   35.2003   12.0134 O   0  0  0  0  0  0  0  0  0  0  0  0
   11.2856   36.9394   17.2529 C   0  0  0  0  0  0  0  0  0  0  0  0
   19.3474   34.1532   14.3148 O   0  0  0  0  0  0  0  0  0  0  0  0
   10.5772   33.0727   16.7711 C   0  0  0  0  0  0  0  0  0  0  0  0
   13.8203   33.8522   14.8979 C   0  0  0  0  0  0  0  0  0  0  0  0
   17.0525   35.5797   10.8287 C   0  0  0  0  0  0  0  0  0  0  0  0
   16.5213   31.6189   13.4032 C   0  0  0  0  0  0  0  0  0  0  0  0
   15.8664   32.7667   13.8059 C   0  0  0  0  0  0  0  0  0  0  0  0
  1  7  1  0
  1  9  1  0
  1 10  1  0
  2 13  2  0
  2 14  1  0
  2 24  1  0
  3 17  2  0
  3 21  1  0
  4  5  2  0
  4 16  1  0
  5 12  1  0
  6  8  1  0
  6 10  1  0
  6 27  1  0
  8 20  1  0
  9 25  1  0
 11 13  1  0
 11 15  1  0
 11 18  2  0
 12 26  1  0
 13 17  1  0
 14 23  1  0
 15 24  1  0
 16 24  1  0
 16 27  1  0
 17 23  1  0
 18 21  1  0
 19 23  2  0
 20 25  1  0
 26 27  2  0
M  END
$$$$
