
     RDKit          3D

 12 13  0  0  0  0  0  0  0  0999 V2000
   10.0332   34.6009   17.2383 C   0  0  0  0  0  0  0  0  0  0  0  0
   13.8928   35.3109   11.8231 N   0  0  0  0  0  0  0  0  0  0  0  0
   12.2088   34.8826   16.0573 C   0  0  0  0  0  0  0  0  0  0  0  0
   10.3122   32.3438   16.6930 C   0  0  0  0  0  0  0  0  0  0  0  0
   11.5015   32.4739   15.9728 C   0  0  0  0  0  0  0  0  0  0  0  0
   13.3043   33.4670   14.4818 S   0  0  0  0  0  0  0  0  0  0  0  0
   12.2883   33.5938   15.5874 C   0  0  0  0  0  0  0  0  0  0  0  0
   13.2871   35.9249   15.3813 S   0  0  0  0  0  0  0  0  0  0  0  0
   14.5788   35.2858   13.2078 O   0  0  0  0  0  0  0  0  0  0  0  0
   13.7833   34.8925   14.2830 C   0  0  0  0  0  0  0  0  0  0  0  0
   11.1153   35.3545   16.8751 C   0  0  0  0  0  0  0  0  0  0  0  0
    9.7622   33.4575   17.2414 N   0  0  0  0  0  0  0  0  0  0  0  0
  1 11  1  0
  1 12  2  0
  2  9  1  0
  3  7  1  0
  3  8  1  0
  3 11  2  0
  4  5  2  0
  4 12  1  0
  5  7  1  0
  6  7  1  0
  6 10  1  0
  8 10  1  0
  9 10  1  0
M  END
$$$$
