
     RDKit          3D

 12 12  0  0  0  0  0  0  0  0999 V2000
   13.0525   36.5952   15.7956 C   0  0  0  0  0  0  0  0  0  0  0  0
   12.6089   32.9362   15.1464 C   0  0  0  0  0  0  0  0  0  0  0  0
   13.3267   35.3807   12.5287 O   0  0  0  0  0  0  0  0  0  0  0  0
   11.5039   34.9561   16.6859 C   0  0  0  0  0  0  0  0  0  0  0  0
   10.9377   33.6063   16.7863 C   0  0  0  0  0  0  0  0  0  0  0  0
   12.4841   35.2537   15.7649 N   0  0  0  0  0  0  0  0  0  0  0  0
   11.6212   32.6105   16.1217 C   0  0  0  0  0  0  0  0  0  0  0  0
   13.4632   34.3517   13.4929 C   0  0  0  0  0  0  0  0  0  0  0  0
    9.8366   33.3707   17.4109 O   0  0  0  0  0  0  0  0  0  0  0  0
   13.4288   31.8324   14.2202 O   0  0  0  0  0  0  0  0  0  0  0  0
   12.9035   34.2795   14.8263 C   0  0  0  0  0  0  0  0  0  0  0  0
   13.9076   33.0965   13.0430 C   0  0  0  0  0  0  0  0  0  0  0  0
  1  6  1  0
  2  7  1  0
  2 10  1  0
  2 11  1  0
  3  8  1  0
  4  5  1  0
  4  6  1  0
  5  7  2  0
  5  9  1  0
  6 11  1  0
  8 11  1  0
  8 12  1  0
M  END
$$$$
