
     RDKit          3D

 15 15  0  0  0  0  0  0  0  0999 V2000
   12.4322   33.7435   16.0867 C   0  0  0  0  0  0  0  0  0  0  0  0
    9.8261   34.3981   17.1958 N   0  0  0  0  0  0  0  0  0  0  0  0
   15.4095   34.2039   13.7650 C   0  0  0  0  0  0  0  0  0  0  0  0
    9.8906   33.2424   17.4462 N   0  0  0  0  0  0  0  0  0  0  0  0
   13.6384   33.5789   15.3795 N   0  0  0  0  0  0  0  0  0  0  0  0
   10.8578   35.3446   16.9421 C   0  0  0  0  0  0  0  0  0  0  0  0
   16.7929   35.3895   11.9634 C   0  0  0  0  0  0  0  0  0  0  0  0
   12.0402   35.0560   16.3067 C   0  0  0  0  0  0  0  0  0  0  0  0
   13.2962   35.1596   13.7615 O   0  0  0  0  0  0  0  0  0  0  0  0
   16.0703   35.5403   13.3013 C   0  0  0  0  0  0  0  0  0  0  0  0
   16.5847   33.1357   13.9471 C   0  0  0  0  0  0  0  0  0  0  0  0
   14.0078   34.3701   14.4159 C   0  0  0  0  0  0  0  0  0  0  0  0
   11.9155   32.6773   16.7178 C   0  0  0  0  0  0  0  0  0  0  0  0
   10.7143   32.3267   17.1595 C   0  0  0  0  0  0  0  0  0  0  0  0
   15.6662   35.1273   10.8087 C   0  0  0  0  0  0  0  0  0  0  0  0
  1  5  1  0
  1  8  1  0
  1 13  1  0
  2  4  1  0
  2  6  1  0
  3 10  1  0
  3 11  1  0
  3 12  1  0
  4 14  1  0
  5 12  1  0
  6  8  2  0
  7 10  1  0
  7 15  1  0
  9 12  2  0
 13 14  1  0
M  END
$$$$
