
     RDKit          3D

 14 14  0  0  0  0  0  0  0  0999 V2000
   15.5905   33.2053   13.7527 C   0  0  0  0  0  0  0  0  0  0  0  0
   15.3242   35.2993   11.7552 O   0  0  0  0  0  0  0  0  0  0  0  0
   13.5794   34.3369   15.0134 C   0  0  0  0  0  0  0  0  0  0  0  0
    9.9563   33.9872   17.1987 C   0  0  0  0  0  0  0  0  0  0  0  0
   12.9783   35.3835   12.2208 C   0  0  0  0  0  0  0  0  0  0  0  0
   13.0874   35.4832   15.5491 N   0  0  0  0  0  0  0  0  0  0  0  0
   11.9814   35.4242   16.3194 C   0  0  0  0  0  0  0  0  0  0  0  0
   13.0807   33.1161   15.3720 N   0  0  0  0  0  0  0  0  0  0  0  0
   12.0361   33.1434   16.0740 C   0  0  0  0  0  0  0  0  0  0  0  0
   11.3495   34.2017   16.5573 C   0  0  0  0  0  0  0  0  0  0  0  0
    9.9373   32.6040   17.2649 O   0  0  0  0  0  0  0  0  0  0  0  0
   15.9111   32.1173   14.8211 C   0  0  0  0  0  0  0  0  0  0  0  0
   14.7471   34.4814   13.9566 C   0  0  0  0  0  0  0  0  0  0  0  0
   14.3641   35.0869   12.6304 C   0  0  0  0  0  0  0  0  0  0  0  0
  1 12  1  0
  1 13  1  0
  2 14  1  0
  3  6  1  0
  3  8  1  0
  3 13  1  0
  4 10  1  0
  4 11  1  0
  5 14  1  0
  6  7  2  0
  7 10  1  0
  8  9  2  0
  9 10  1  0
 13 14  1  0
M  END
$$$$
