
     RDKit          3D

 30 32  0  0  0  0  0  0  0  0999 V2000
  -23.3910   16.0336  -28.3173 O   0  0  0  0  0  0  0  0  0  0  0  0
  -17.9298   14.4334  -29.3590 C   0  0  0  0  0  0  0  0  0  0  0  0
  -16.8877   15.1115  -32.9195 C   0  0  0  0  0  0  0  0  0  0  0  0
  -17.9744   13.3550  -31.8021 C   0  0  0  0  0  0  0  0  0  0  0  0
  -16.2262   15.9815  -28.3091 C   0  0  0  0  0  0  0  0  0  0  0  0
  -20.3601   17.3234  -25.5956 C   0  0  0  0  0  0  0  0  0  0  0  0
  -15.3228   16.2341  -27.2524 C   0  0  0  0  0  0  0  0  0  0  0  0
  -17.5568   16.7093  -30.3005 C   0  0  0  0  0  0  0  0  0  0  0  0
  -16.4545   17.1049  -29.2465 C   0  0  0  0  0  0  0  0  0  0  0  0
  -17.9530   17.2953  -25.1159 O   0  0  0  0  0  0  0  0  0  0  0  0
  -15.2929   13.8323  -26.7791 C   0  0  0  0  0  0  0  0  0  0  0  0
  -14.8915   15.1422  -26.5075 C   0  0  0  0  0  0  0  0  0  0  0  0
  -16.6466   16.5616  -32.7968 C   0  0  0  0  0  0  0  0  0  0  0  0
  -21.1335   17.7296  -26.8358 C   0  0  0  0  0  0  0  0  0  0  0  0
  -17.2350   14.5679  -31.6118 N   0  0  0  0  0  0  0  0  0  0  0  0
  -18.9950   17.8144  -25.8152 C   0  0  0  0  0  0  0  0  0  0  0  0
  -16.7345   18.7375  -31.5385 C   0  0  0  0  0  0  0  0  0  0  0  0
  -16.2886   13.6335  -27.7029 C   0  0  0  0  0  0  0  0  0  0  0  0
  -17.1872   17.3666  -31.6489 C   0  0  0  0  0  0  0  0  0  0  0  0
  -16.2488   19.1859  -32.6324 O   0  0  0  0  0  0  0  0  0  0  0  0
  -21.9493   16.7847  -29.9818 C   0  0  0  0  0  0  0  0  0  0  0  0
  -16.9687   19.4970  -30.4878 N   0  0  0  0  0  0  0  0  0  0  0  0
  -19.3491   13.6820  -31.7759 O   0  0  0  0  0  0  0  0  0  0  0  0
  -22.2857   16.4023  -28.6380 C   0  0  0  0  0  0  0  0  0  0  0  0
  -20.2712   18.7278  -27.5550 C   0  0  0  0  0  0  0  0  0  0  0  0
  -21.3603   16.5616  -27.6488 N   0  0  0  0  0  0  0  0  0  0  0  0
  -18.9401   18.5576  -26.9755 N   0  0  0  0  0  0  0  0  0  0  0  0
  -17.7373   15.2514  -30.5625 C   0  0  0  0  0  0  0  0  0  0  0  0
  -18.8029   17.1880  -29.7670 O   0  0  0  0  0  0  0  0  0  0  0  0
  -16.8069   14.6834  -28.4588 C   0  0  0  0  0  0  0  0  0  0  0  0
  1 24  2  0
  2 28  1  0
  2 30  1  0
  3 13  1  0
  3 15  1  0
  4 15  1  0
  4 23  1  0
  5  7  1  0
  5  9  1  0
  5 30  1  0
  6 14  1  0
  6 16  1  0
  7 12  2  0
  8  9  1  0
  8 19  1  0
  8 28  1  0
  8 29  1  0
 10 16  2  0
 11 12  1  0
 11 18  2  0
 13 19  1  0
 14 25  1  0
 14 26  1  0
 15 28  1  0
 16 27  1  0
 17 19  1  0
 17 20  2  0
 17 22  1  0
 18 30  1  0
 21 24  1  0
 24 26  1  0
 25 27  1  0
M  END
$$$$
