
     RDKit          3D

 25 28  0  0  0  0  0  0  0  0999 V2000
  -16.2512   13.3665  -27.9119 C   0  0  0  0  0  0  0  0  0  0  0  0
  -21.1521   17.6348  -31.9895 C   0  0  0  0  0  0  0  0  0  0  0  0
  -14.9765   14.9470  -26.5508 C   0  0  0  0  0  0  0  0  0  0  0  0
  -18.2003   14.9691  -28.1236 C   0  0  0  0  0  0  0  0  0  0  0  0
  -23.1446   15.8881  -27.1260 C   0  0  0  0  0  0  0  0  0  0  0  0
  -18.9688   15.7252  -28.9694 C   0  0  0  0  0  0  0  0  0  0  0  0
  -21.8579   16.0087  -27.4605 C   0  0  0  0  0  0  0  0  0  0  0  0
  -24.0851   16.7216  -27.7016 C   0  0  0  0  0  0  0  0  0  0  0  0
  -21.9807   18.5812  -31.5355 N   0  0  0  0  0  0  0  0  0  0  0  0
  -23.7601   17.6534  -28.6159 C   0  0  0  0  0  0  0  0  0  0  0  0
  -22.4574   17.7087  -29.1861 C   0  0  0  0  0  0  0  0  0  0  0  0
  -15.3263   13.5199  -26.8720 C   0  0  0  0  0  0  0  0  0  0  0  0
  -24.6444   18.5396  -28.9715 F   0  0  0  0  0  0  0  0  0  0  0  0
  -18.8786   16.9736  -32.4365 C   0  0  0  0  0  0  0  0  0  0  0  0
  -20.1889   16.3872  -28.8426 N   0  0  0  0  0  0  0  0  0  0  0  0
  -16.4843   15.0486  -29.7124 C   0  0  0  0  0  0  0  0  0  0  0  0
  -22.3020   18.7669  -30.1710 C   0  0  0  0  0  0  0  0  0  0  0  0
  -19.3906   16.4810  -31.1749 N   0  0  0  0  0  0  0  0  0  0  0  0
  -21.4794   16.7693  -28.6212 C   0  0  0  0  0  0  0  0  0  0  0  0
  -20.8942   15.5029  -26.6617 O   0  0  0  0  0  0  0  0  0  0  0  0
  -19.9559   17.9979  -32.8055 C   0  0  0  0  0  0  0  0  0  0  0  0
  -20.8101   16.3949  -31.2857 C   0  0  0  0  0  0  0  0  0  0  0  0
  -16.9806   14.5018  -28.5514 C   0  0  0  0  0  0  0  0  0  0  0  0
  -18.5005   15.9917  -30.2201 C   0  0  0  0  0  0  0  0  0  0  0  0
  -17.2134   15.7762  -30.5451 N   0  0  0  0  0  0  0  0  0  0  0  0
  1 12  1  0
  1 23  1  0
  2  9  1  0
  2 21  1  0
  2 22  1  0
  3 12  1  0
  4  6  2  0
  4 23  1  0
  5  7  1  0
  5  8  2  0
  6 15  1  0
  6 24  1  0
  7 19  2  0
  7 20  1  0
  8 10  1  0
  9 17  1  0
 10 11  2  0
 10 13  1  0
 11 17  1  0
 11 19  1  0
 14 18  1  0
 14 21  1  0
 15 19  1  0
 16 23  1  0
 16 25  2  0
 18 22  1  0
 18 24  1  0
 24 25  1  0
M  END
$$$$
