
     RDKit          3D

 32 37  0  0  0  0  0  0  0  0999 V2000
  -21.6774   15.2308  -30.6322 C   0  0  0  0  0  0  0  0  0  0  0  0
  -18.4301   18.5953  -31.2046 C   0  0  0  0  0  0  0  0  0  0  0  0
  -18.0631   16.9777  -33.4221 C   0  0  0  0  0  0  0  0  0  0  0  0
  -21.0450   18.0218  -28.3447 C   0  0  0  0  0  0  0  0  0  0  0  0
  -23.9663   14.6947  -29.4065 C   0  0  0  0  0  0  0  0  0  0  0  0
  -22.8671   14.6748  -30.2623 N   0  0  0  0  0  0  0  0  0  0  0  0
  -16.1658   17.0111  -26.7982 C   0  0  0  0  0  0  0  0  0  0  0  0
  -19.9203   18.5304  -28.9223 C   0  0  0  0  0  0  0  0  0  0  0  0
  -18.5567   16.3208  -29.1620 N   0  0  0  0  0  0  0  0  0  0  0  0
  -20.9736   16.1483  -29.8339 N   0  0  0  0  0  0  0  0  0  0  0  0
  -18.3924   17.3143  -32.0303 C   0  0  0  0  0  0  0  0  0  0  0  0
  -14.3426   16.6185  -28.2400 C   0  0  0  0  0  0  0  0  0  0  0  0
  -21.0946   14.8887  -31.8027 C   0  0  0  0  0  0  0  0  0  0  0  0
  -22.7789   16.6375  -28.2300 N   0  0  0  0  0  0  0  0  0  0  0  0
  -17.5572   20.7901  -31.4708 C   0  0  0  0  0  0  0  0  0  0  0  0
  -18.1622   21.2139  -30.2859 C   0  0  0  0  0  0  0  0  0  0  0  0
  -23.7791   15.5278  -28.1961 C   0  0  0  0  0  0  0  0  0  0  0  0
  -17.7062   19.5203  -31.8920 C   0  0  0  0  0  0  0  0  0  0  0  0
  -19.0596   19.0318  -29.9503 C   0  0  0  0  0  0  0  0  0  0  0  0
  -14.7771   17.5530  -27.1177 C   0  0  0  0  0  0  0  0  0  0  0  0
  -22.9574   17.7155  -27.2782 C   0  0  0  0  0  0  0  0  0  0  0  0
  -19.6483   16.3437  -30.1074 C   0  0  0  0  0  0  0  0  0  0  0  0
  -21.6354   16.8289  -28.8262 C   0  0  0  0  0  0  0  0  0  0  0  0
  -21.8618   18.5798  -27.3628 C   0  0  0  0  0  0  0  0  0  0  0  0
  -19.3654   16.3380  -31.4915 C   0  0  0  0  0  0  0  0  0  0  0  0
  -14.8494   15.2255  -27.7063 C   0  0  0  0  0  0  0  0  0  0  0  0
  -17.2757   14.8650  -27.6764 C   0  0  0  0  0  0  0  0  0  0  0  0
  -17.5380   15.4199  -29.0634 C   0  0  0  0  0  0  0  0  0  0  0  0
  -17.1430   17.7120  -26.5308 O   0  0  0  0  0  0  0  0  0  0  0  0
  -18.8763   20.3503  -29.5714 C   0  0  0  0  0  0  0  0  0  0  0  0
  -19.9691   15.4717  -32.2605 N   0  0  0  0  0  0  0  0  0  0  0  0
  -16.1827   15.6467  -27.0927 N   0  0  0  0  0  0  0  0  0  0  0  0
  1  6  2  0
  1 10  1  0
  1 13  1  0
  2 11  1  0
  2 18  1  0
  2 19  1  0
  3 11  1  0
  4  8  2  0
  4 23  1  0
  4 24  1  0
  5  6  1  0
  5 17  1  0
  7 20  1  0
  7 29  2  0
  7 32  1  0
  8 19  2  0
  9 22  2  3
  9 28  1  0
 10 22  1  0
 10 23  1  0
 11 25  1  0
 12 20  1  0
 12 26  1  0
 13 31  2  0
 14 17  1  0
 14 21  1  0
 14 23  1  0
 15 16  1  0
 15 18  2  0
 16 30  2  0
 19 30  1  0
 21 24  1  0
 22 25  1  0
 25 31  1  0
 26 32  1  0
 27 28  1  0
 27 32  1  0
M  END
$$$$
