
     RDKit          3D

 20 22  0  0  0  0  0  0  0  0999 V2000
  -22.2901   18.5333  -31.4598 C   0  0  0  0  0  0  0  0  0  0  0  0
  -22.2891   16.2673  -28.8035 C   0  0  0  0  0  0  0  0  0  0  0  0
  -23.0161   15.3356  -27.7482 C   0  0  0  0  0  0  0  0  0  0  0  0
  -23.7363   15.4767  -30.6266 C   0  0  0  0  0  0  0  0  0  0  0  0
  -15.8335   16.9330  -26.8568 C   0  0  0  0  0  0  0  0  0  0  0  0
  -21.0347   18.3370  -28.1802 C   0  0  0  0  0  0  0  0  0  0  0  0
  -19.1361   17.7458  -29.4376 C   0  0  0  0  0  0  0  0  0  0  0  0
  -24.6980   16.8850  -29.0442 O   0  0  0  0  0  0  0  0  0  0  0  0
  -20.3139   17.2035  -27.4246 C   0  0  0  0  0  0  0  0  0  0  0  0
  -20.5806   20.0258  -30.7808 O   0  0  0  0  0  0  0  0  0  0  0  0
  -21.2192   16.5331  -29.7286 C   0  0  0  0  0  0  0  0  0  0  0  0
  -21.0812   18.8609  -30.6925 C   0  0  0  0  0  0  0  0  0  0  0  0
  -16.9486   16.1559  -26.4117 C   0  0  0  0  0  0  0  0  0  0  0  0
  -20.8027   15.9283  -28.2363 C   0  0  0  0  0  0  0  0  0  0  0  0
  -14.7983   16.0773  -27.5380 C   0  0  0  0  0  0  0  0  0  0  0  0
  -18.7859   17.2729  -27.9585 C   0  0  0  0  0  0  0  0  0  0  0  0
  -18.1700   16.0538  -27.1418 C   0  0  0  0  0  0  0  0  0  0  0  0
  -23.3236   17.9015  -30.6321 C   0  0  0  0  0  0  0  0  0  0  0  0
  -23.6039   16.6695  -29.7524 C   0  0  0  0  0  0  0  0  0  0  0  0
  -20.6746   17.9350  -29.6154 C   0  0  0  0  0  0  0  0  0  0  0  0
  1 12  1  0
  1 18  1  0
  2  3  1  0
  2 11  1  0
  2 14  1  0
  2 19  1  0
  4 19  1  0
  5 13  1  0
  5 15  1  0
  6  9  1  0
  6 20  1  0
  7 16  1  0
  7 20  1  0
  8 19  1  0
  9 14  1  0
  9 16  1  0
 10 12  2  0
 11 20  1  0
 12 20  1  0
 13 17  1  0
 16 17  1  0
 18 19  1  0
M  END
$$$$
