
     RDKit          3D

 31 33  0  0  0  0  0  0  0  0999 V2000
  -19.5244   15.9343  -30.3025 O   0  0  0  0  0  0  0  0  0  0  0  0
  -18.2026   16.0955  -30.8105 C   0  0  0  0  0  0  0  0  0  0  0  0
  -18.1590   15.4209  -32.1810 C   0  0  0  0  0  0  0  0  0  0  0  0
  -14.5406   15.7806  -27.9043 O   0  0  0  0  0  0  0  0  0  0  0  0
  -17.5900   17.4581  -31.0912 C   0  0  0  0  0  0  0  0  0  0  0  0
  -14.5029   14.6675  -26.9998 C   0  0  0  0  0  0  0  0  0  0  0  0
  -18.4322   16.5424  -26.6539 C   0  0  0  0  0  0  0  0  0  0  0  0
  -21.0063   16.5933  -27.5385 C   0  0  0  0  0  0  0  0  0  0  0  0
  -17.7011   18.4025  -30.0721 O   0  0  0  0  0  0  0  0  0  0  0  0
  -15.8269   16.1035  -28.2468 C   0  0  0  0  0  0  0  0  0  0  0  0
  -18.5081   17.0109  -28.0756 C   0  0  0  0  0  0  0  0  0  0  0  0
  -20.2244   18.6245  -28.6318 O   0  0  0  0  0  0  0  0  0  0  0  0
  -19.2845   17.4764  -33.3323 O   0  0  0  0  0  0  0  0  0  0  0  0
  -15.9222   14.1281  -26.9875 C   0  0  0  0  0  0  0  0  0  0  0  0
  -19.2315   16.1561  -32.9562 C   0  0  0  0  0  0  0  0  0  0  0  0
  -22.7955   16.7395  -29.4459 C   0  0  0  0  0  0  0  0  0  0  0  0
  -21.9928   15.7682  -30.3457 C   0  0  0  0  0  0  0  0  0  0  0  0
  -16.7002   17.5089  -32.0230 O   0  0  0  0  0  0  0  0  0  0  0  0
  -22.4537   16.5992  -27.9660 C   0  0  0  0  0  0  0  0  0  0  0  0
  -24.8165   15.7046  -28.3524 C   0  0  0  0  0  0  0  0  0  0  0  0
  -20.7293   16.2140  -31.0229 C   0  0  0  0  0  0  0  0  0  0  0  0
  -24.3287   16.2538  -29.6833 C   0  0  0  0  0  0  0  0  0  0  0  0
  -17.4885   17.8930  -28.7187 C   0  0  0  0  0  0  0  0  0  0  0  0
  -16.6517   14.9308  -27.9941 C   0  0  0  0  0  0  0  0  0  0  0  0
  -20.5742   15.7564  -32.4214 C   0  0  0  0  0  0  0  0  0  0  0  0
  -19.9607   17.3651  -28.3456 C   0  0  0  0  0  0  0  0  0  0  0  0
  -25.2446   15.3879  -30.6642 C   0  0  0  0  0  0  0  0  0  0  0  0
  -21.1964   17.2138  -26.3021 O   0  0  0  0  0  0  0  0  0  0  0  0
  -16.1313   17.4119  -28.6491 N   0  0  0  0  0  0  0  0  0  0  0  0
  -26.6549   15.2553  -30.1204 C   0  0  0  0  0  0  0  0  0  0  0  0
  -26.8110   13.9078  -29.5129 C   0  0  0  0  0  0  0  0  0  0  0  0
  1  2  1  0
  1 21  1  0
  2  3  1  0
  2  5  1  0
  3 15  1  0
  4  6  1  0
  4 10  1  0
  5  9  1  0
  5 18  2  0
  6 14  1  0
  7 11  1  0
  8 19  1  0
  8 26  1  0
  8 28  1  0
  9 23  1  0
 10 24  1  0
 10 29  2  3
 11 23  1  0
 11 26  1  0
 12 26  1  0
 13 15  1  0
 14 24  1  0
 15 25  1  0
 16 17  1  0
 16 19  1  0
 16 22  1  0
 17 21  1  0
 20 22  1  0
 21 25  1  0
 22 27  1  0
 23 29  1  0
 27 30  1  0
 30 31  1  0
M  END
$$$$
