
     RDKit          3D

 23 24  0  0  0  0  0  0  0  0999 V2000
  -14.0537   16.0419  -28.3155 F   0  0  0  0  0  0  0  0  0  0  0  0
  -14.8773   14.3105  -26.3557 F   0  0  0  0  0  0  0  0  0  0  0  0
  -24.8134   15.8427  -30.1907 C   0  0  0  0  0  0  0  0  0  0  0  0
  -20.1956   16.6851  -27.9454 C   0  0  0  0  0  0  0  0  0  0  0  0
  -21.3301   16.8035  -26.9354 C   0  0  0  0  0  0  0  0  0  0  0  0
  -22.8132   15.8347  -28.7899 C   0  0  0  0  0  0  0  0  0  0  0  0
  -17.1348   14.3601  -27.2091 C   0  0  0  0  0  0  0  0  0  0  0  0
  -20.0677   17.1599  -31.5309 O   0  0  0  0  0  0  0  0  0  0  0  0
  -23.7667   14.9378  -29.5240 C   0  0  0  0  0  0  0  0  0  0  0  0
  -22.3957   17.8129  -27.3703 C   0  0  0  0  0  0  0  0  0  0  0  0
  -20.4592   16.3943  -29.3079 N   0  0  0  0  0  0  0  0  0  0  0  0
  -19.1912   17.3485  -27.4969 O   0  0  0  0  0  0  0  0  0  0  0  0
  -18.3882   15.7961  -30.5084 C   0  0  0  0  0  0  0  0  0  0  0  0
  -19.5991   16.6004  -30.4183 C   0  0  0  0  0  0  0  0  0  0  0  0
  -16.2848   15.9748  -29.2444 C   0  0  0  0  0  0  0  0  0  0  0  0
  -21.8621   16.5647  -29.6851 C   0  0  0  0  0  0  0  0  0  0  0  0
  -23.5975   16.8995  -27.9413 C   0  0  0  0  0  0  0  0  0  0  0  0
  -20.8457   16.2105  -25.6126 C   0  0  0  0  0  0  0  0  0  0  0  0
  -18.0137   14.7585  -28.1839 C   0  0  0  0  0  0  0  0  0  0  0  0
  -17.7074   15.9495  -31.7005 O   0  0  0  0  0  0  0  0  0  0  0  0
  -17.6068   15.5219  -29.2674 C   0  0  0  0  0  0  0  0  0  0  0  0
  -15.4004   15.6153  -28.2903 C   0  0  0  0  0  0  0  0  0  0  0  0
  -15.8230   14.7610  -27.2728 C   0  0  0  0  0  0  0  0  0  0  0  0
  1 22  1  0
  2 23  1  0
  3  9  1  0
  4  5  1  0
  4 11  1  0
  4 12  2  0
  5 10  1  0
  5 18  1  0
  6  9  1  0
  6 16  1  0
  6 17  1  0
  7 19  2  0
  7 23  1  0
  8 14  2  0
 10 17  1  0
 11 14  1  0
 11 16  1  0
 13 14  1  0
 13 20  1  0
 13 21  1  0
 15 21  1  0
 15 22  2  0
 19 21  1  0
 22 23  1  0
M  END
$$$$
