
     RDKit          3D

 14 13  0  0  0  0  0  0  0  0999 V2000
  -15.8332   15.5998  -27.1647 C   0  0  0  0  0  0  0  0  0  0  0  0
  -19.6945   15.7782  -27.6042 C   0  0  0  0  0  0  0  0  0  0  0  0
  -23.0428   16.5770  -28.5999 N   0  0  0  0  0  0  0  0  0  0  0  0
  -17.4212   17.0215  -26.1460 O   0  0  0  0  0  0  0  0  0  0  0  0
  -19.9332   16.1133  -26.2603 C   0  0  0  0  0  0  0  0  0  0  0  0
  -17.2378   16.0733  -27.0457 C   0  0  0  0  0  0  0  0  0  0  0  0
  -20.8116   16.9132  -25.6753 C   0  0  0  0  0  0  0  0  0  0  0  0
  -23.2171   16.4180  -29.9360 C   0  0  0  0  0  0  0  0  0  0  0  0
  -22.0381   16.0897  -27.9066 C   0  0  0  0  0  0  0  0  0  0  0  0
  -14.7733   16.5622  -26.8188 C   0  0  0  0  0  0  0  0  0  0  0  0
  -18.2660   15.4253  -27.9662 C   0  0  0  0  0  0  0  0  0  0  0  0
  -15.4780   14.7338  -28.3364 C   0  0  0  0  0  0  0  0  0  0  0  0
  -20.8111   15.7615  -28.4388 N   0  0  0  0  0  0  0  0  0  0  0  0
  -22.0643   16.2614  -30.6914 N   0  0  0  0  0  0  0  0  0  0  0  0
  1  6  1  0
  1 10  1  0
  1 12  1  0
  2  5  1  0
  2 11  1  0
  2 13  2  3
  3  8  1  0
  3  9  1  0
  4  6  1  0
  5  7  2  0
  6 11  1  0
  8 14  1  0
  9 13  1  0
M  END
$$$$
