
     RDKit          3D

 31 33  0  0  0  0  0  0  0  0999 V2000
   24.9579   35.0715  103.1394 C   0  0  0  0  0  0  0  0  0  0  0  0
   27.2489   36.6978  105.0942 O   0  0  0  0  0  0  0  0  0  0  0  0
   29.8626   33.0475  103.0614 C   0  0  0  0  0  0  0  0  0  0  0  0
   28.7550   33.6199  103.5267 C   0  0  0  0  0  0  0  0  0  0  0  0
   31.2070   33.4511  103.0389 C   0  0  0  0  0  0  0  0  0  0  0  0
   29.6897   37.1329  103.7971 O   0  0  0  0  0  0  0  0  0  0  0  0
   27.8814   34.5552  104.0088 N   0  0  0  0  0  0  0  0  0  0  0  0
   21.2597   33.3382  105.5130 C   0  0  0  0  0  0  0  0  0  0  0  0
   32.0788   33.0972  102.2063 O   0  0  0  0  0  0  0  0  0  0  0  0
   22.3166   34.3483  106.1539 C   0  0  0  0  0  0  0  0  0  0  0  0
   25.9739   34.9028  105.1705 C   0  0  0  0  0  0  0  0  0  0  0  0
   24.9608   34.4775  104.4677 C   0  0  0  0  0  0  0  0  0  0  0  0
   23.4027   32.3505  104.1803 C   0  0  0  0  0  0  0  0  0  0  0  0
   31.1722   35.4517  104.0879 N   0  0  0  0  0  0  0  0  0  0  0  0
   25.5892   35.4724   99.8701 C   0  0  0  0  0  0  0  0  0  0  0  0
   29.8628   35.9069  103.9440 C   0  0  0  0  0  0  0  0  0  0  0  0
   24.2238   33.4903  104.9590 N   0  0  0  0  0  0  0  0  0  0  0  0
   24.9324   33.9427  107.4692 C   0  0  0  0  0  0  0  0  0  0  0  0
   26.0376   33.3006  107.5656 O   0  0  0  0  0  0  0  0  0  0  0  0
   25.1412   35.5144  102.1545 C   0  0  0  0  0  0  0  0  0  0  0  0
   24.0997   36.2011  101.3476 N   0  0  0  0  0  0  0  0  0  0  0  0
   26.1876   35.1563  100.9676 N   0  0  0  0  0  0  0  0  0  0  0  0
   31.7486   34.3596  104.1574 C   0  0  0  0  0  0  0  0  0  0  0  0
   26.9877   35.2911  104.7410 C   0  0  0  0  0  0  0  0  0  0  0  0
   24.6214   34.7530  108.4784 O   0  0  0  0  0  0  0  0  0  0  0  0
   22.8856   36.4461   98.9226 C   0  0  0  0  0  0  0  0  0  0  0  0
   23.8113   33.7988  106.2762 C   0  0  0  0  0  0  0  0  0  0  0  0
   32.7387   33.9758  104.6827 N   0  0  0  0  0  0  0  0  0  0  0  0
   24.3216   36.1258  100.0853 C   0  0  0  0  0  0  0  0  0  0  0  0
   22.0615   31.9474  104.9929 C   0  0  0  0  0  0  0  0  0  0  0  0
   29.0198   34.8011  103.9262 C   0  0  0  0  0  0  0  0  0  0  0  0
  1 12  2  0
  1 20  2  0
  2 24  2  0
  3  4  1  0
  3  5  1  0
  4 31  1  0
  5  9  2  0
  5 23  1  0
  6 16  2  0
  7 24  1  0
  7 31  1  0
  8 10  1  0
  8 30  1  0
 10 27  1  0
 11 12  1  0
 11 24  1  0
 12 17  1  0
 13 17  1  0
 13 30  1  0
 14 16  1  0
 14 23  1  0
 15 22  1  0
 15 29  1  0
 16 31  1  0
 17 27  1  0
 18 19  2  0
 18 25  1  0
 18 27  1  0
 20 21  1  0
 20 22  1  0
 21 29  1  0
 23 28  2  0
 26 29  1  0
M  END
$$$$
