
     RDKit          3D

 28 27  0  0  0  0  0  0  0  0999 V2000
   31.8625   33.0726  102.5549 C   0  0  0  0  0  0  0  0  0  0  0  0
   28.3673   36.4529  102.0053 C   0  0  0  0  0  0  0  0  0  0  0  0
   23.4491   32.7875  105.4259 C   0  0  0  0  0  0  0  0  0  0  0  0
   26.5805   33.8374  104.5953 C   0  0  0  0  0  0  0  0  0  0  0  0
   24.4884   33.8904  107.6612 C   0  0  0  0  0  0  0  0  0  0  0  0
   27.0885   35.1613  102.8555 C   0  0  0  0  0  0  0  0  0  0  0  0
   28.8260   34.3286  104.3062 O   0  0  0  0  0  0  0  0  0  0  0  0
   31.5028   34.0995  104.7837 C   0  0  0  0  0  0  0  0  0  0  0  0
   25.1969   34.0049  104.1519 C   0  0  0  0  0  0  0  0  0  0  0  0
   29.3108   34.7157  105.5737 C   0  0  0  0  0  0  0  0  0  0  0  0
   24.2138   35.5041  100.4815 C   0  0  0  0  0  0  0  0  0  0  0  0
   24.2776   33.7354  105.1673 O   0  0  0  0  0  0  0  0  0  0  0  0
   27.4148   34.4521  103.9738 C   0  0  0  0  0  0  0  0  0  0  0  0
   30.9938   33.8486  103.4972 C   0  0  0  0  0  0  0  0  0  0  0  0
   23.0132   33.4601  107.0751 C   0  0  0  0  0  0  0  0  0  0  0  0
   25.7268   35.2379  102.4408 C   0  0  0  0  0  0  0  0  0  0  0  0
   32.8192   34.0281  104.6954 O   0  0  0  0  0  0  0  0  0  0  0  0
   29.5371   33.9181  103.1155 C   0  0  0  0  0  0  0  0  0  0  0  0
   30.7065   35.3081  105.4111 C   0  0  0  0  0  0  0  0  0  0  0  0
   23.2305   36.4233   99.5542 C   0  0  0  0  0  0  0  0  0  0  0  0
   24.9382   34.5720  103.0920 C   0  0  0  0  0  0  0  0  0  0  0  0
   32.6973   33.8643  101.8352 O   0  0  0  0  0  0  0  0  0  0  0  0
   29.2355   33.5005  101.7076 O   0  0  0  0  0  0  0  0  0  0  0  0
   29.1950   36.8393  103.2403 O   0  0  0  0  0  0  0  0  0  0  0  0
   31.3572   36.4362  104.9671 O   0  0  0  0  0  0  0  0  0  0  0  0
   25.5893   37.3003  101.1468 O   0  0  0  0  0  0  0  0  0  0  0  0
   25.9413   33.9623  107.5042 O   0  0  0  0  0  0  0  0  0  0  0  0
   25.0126   36.0420  101.3636 C   0  0  0  0  0  0  0  0  0  0  0  0
  1 14  1  0
  1 22  1  0
  2 24  1  0
  3 12  1  0
  3 15  1  0
  4  9  1  0
  4 13  2  0
  5 15  1  0
  5 27  1  0
  6 13  1  0
  6 16  1  0
  7 10  1  0
  7 13  1  0
  8 14  1  0
  8 17  1  0
  8 19  1  0
  9 12  1  0
  9 21  1  0
 10 19  1  0
 11 20  1  0
 11 28  1  0
 14 18  1  0
 16 21  2  0
 16 28  1  0
 18 23  1  0
 19 25  1  0
 26 28  1  0
M  END
$$$$
