
     RDKit          3D

 32 34  0  0  0  0  0  0  0  0999 V2000
   29.1262   35.0142  104.9672 C   0  0  0  0  0  0  0  0  0  0  0  0
   24.3023   36.2127   99.9966 C   0  0  0  0  0  0  0  0  0  0  0  0
   23.2030   36.2698   98.8703 F   0  0  0  0  0  0  0  0  0  0  0  0
   30.5617   35.4082  104.2114 C   0  0  0  0  0  0  0  0  0  0  0  0
   32.1364   33.8978  104.5762 C   0  0  0  0  0  0  0  0  0  0  0  0
   26.4945   34.4242  106.2271 N   0  0  0  0  0  0  0  0  0  0  0  0
   23.6948   33.0687  105.2603 C   0  0  0  0  0  0  0  0  0  0  0  0
   22.4808   30.9752  104.0978 C   0  0  0  0  0  0  0  0  0  0  0  0
   24.2431   32.1425  104.2376 C   0  0  0  0  0  0  0  0  0  0  0  0
   25.2213   34.2770  106.9923 C   0  0  0  0  0  0  0  0  0  0  0  0
   24.2552   37.3955  100.6136 F   0  0  0  0  0  0  0  0  0  0  0  0
   24.0364   35.1110  100.9636 C   0  0  0  0  0  0  0  0  0  0  0  0
   31.9907   33.9515  102.2076 O   0  0  0  0  0  0  0  0  0  0  0  0
   25.1276   34.5810  108.2685 O   0  0  0  0  0  0  0  0  0  0  0  0
   30.0652   36.6770  103.4028 O   0  0  0  0  0  0  0  0  0  0  0  0
   24.5465   35.0538  103.4086 C   0  0  0  0  0  0  0  0  0  0  0  0
   28.1203   34.5957  104.0014 N   0  0  0  0  0  0  0  0  0  0  0  0
   25.5221   35.8977   99.4651 F   0  0  0  0  0  0  0  0  0  0  0  0
   31.6612   34.0771  105.8775 O   0  0  0  0  0  0  0  0  0  0  0  0
   31.2841   34.2503  103.6539 C   0  0  0  0  0  0  0  0  0  0  0  0
   33.4966   33.5626  104.5112 O   0  0  0  0  0  0  0  0  0  0  0  0
   21.9550   31.6859  105.1027 C   0  0  0  0  0  0  0  0  0  0  0  0
   24.9510   35.2107  102.2252 C   0  0  0  0  0  0  0  0  0  0  0  0
   22.2992   32.7752  105.4654 C   0  0  0  0  0  0  0  0  0  0  0  0
   25.7450   34.7605  104.1059 C   0  0  0  0  0  0  0  0  0  0  0  0
   26.2472   34.4531  105.2471 C   0  0  0  0  0  0  0  0  0  0  0  0
   30.1672   33.2633  103.5201 C   0  0  0  0  0  0  0  0  0  0  0  0
   24.1889   33.8075  106.2557 N   0  0  0  0  0  0  0  0  0  0  0  0
   28.7227   33.4180  103.3732 C   0  0  0  0  0  0  0  0  0  0  0  0
   26.4309   35.2296  102.1693 N   0  0  0  0  0  0  0  0  0  0  0  0
   23.6871   31.3550  103.6521 C   0  0  0  0  0  0  0  0  0  0  0  0
   26.7836   34.9043  103.4133 C   0  0  0  0  0  0  0  0  0  0  0  0
  1  4  1  0
  1 17  1  0
  2  3  1  0
  2 11  1  0
  2 12  1  0
  2 18  1  0
  4 15  1  0
  4 20  1  0
  5 19  2  0
  5 20  1  0
  5 21  1  0
  6 10  1  0
  6 26  1  0
  7  9  2  0
  7 24  1  0
  7 28  1  0
  8 22  1  0
  8 31  2  0
  9 31  1  0
 10 14  2  0
 10 28  1  0
 12 23  1  0
 13 20  1  0
 16 23  1  0
 16 25  1  0
 17 29  1  0
 17 32  1  0
 20 27  1  0
 22 24  1  0
 23 30  1  0
 25 26  1  0
 25 32  2  0
 27 29  1  0
 30 32  1  0
M  END
$$$$
