
     RDKit          3D

 28 30  0  0  0  0  0  0  0  0999 V2000
   30.4371   35.6301  103.9678 C   0  0  0  0  0  0  0  0  0  0  0  0
   31.8595   33.9022  104.5713 C   0  0  0  0  0  0  0  0  0  0  0  0
   26.3722   35.8081  101.0226 C   0  0  0  0  0  0  0  0  0  0  0  0
   24.2646   36.2809  100.1154 C   0  0  0  0  0  0  0  0  0  0  0  0
   30.0787   36.9436  103.6196 O   0  0  0  0  0  0  0  0  0  0  0  0
   23.3453   31.3686  103.7184 O   0  0  0  0  0  0  0  0  0  0  0  0
   26.0292   35.1681  103.5474 C   0  0  0  0  0  0  0  0  0  0  0  0
   29.5673   33.5024  103.6513 C   0  0  0  0  0  0  0  0  0  0  0  0
   31.7330   35.3230  104.3408 C   0  0  0  0  0  0  0  0  0  0  0  0
   28.1208   35.1947  104.7925 C   0  0  0  0  0  0  0  0  0  0  0  0
   25.2727   34.1374  104.2982 C   0  0  0  0  0  0  0  0  0  0  0  0
   31.1009   33.1657  103.3928 C   0  0  0  0  0  0  0  0  0  0  0  0
   24.5955   33.7351  107.7766 C   0  0  0  0  0  0  0  0  0  0  0  0
   25.5059   35.3437  102.1881 C   0  0  0  0  0  0  0  0  0  0  0  0
   24.2513   35.1725  101.9162 O   0  0  0  0  0  0  0  0  0  0  0  0
   24.2813   33.6428  106.3080 C   0  0  0  0  0  0  0  0  0  0  0  0
   25.4773   36.0896  100.0000 C   0  0  0  0  0  0  0  0  0  0  0  0
   23.9344   32.2052  104.2678 C   0  0  0  0  0  0  0  0  0  0  0  0
   24.6816   33.1029  103.6613 N   0  0  0  0  0  0  0  0  0  0  0  0
   31.9949   33.5960  102.1943 N   0  0  0  0  0  0  0  0  0  0  0  0
   25.1633   34.7777  108.4003 O   0  0  0  0  0  0  0  0  0  0  0  0
   23.5558   36.0296  101.4234 O   0  0  0  0  0  0  0  0  0  0  0  0
   23.4981   32.5759  105.7293 C   0  0  0  0  0  0  0  0  0  0  0  0
   31.4089   33.3039  106.0187 C   0  0  0  0  0  0  0  0  0  0  0  0
   23.0302   36.4744   98.9219 O   0  0  0  0  0  0  0  0  0  0  0  0
   25.2720   34.4146  105.6313 N   0  0  0  0  0  0  0  0  0  0  0  0
   29.4210   34.8056  104.1617 N   0  0  0  0  0  0  0  0  0  0  0  0
   27.3094   35.5174  103.8770 C   0  0  0  0  0  0  0  0  0  0  0  0
  1  5  2  0
  1  9  1  0
  1 27  1  0
  2  9  1  0
  2 12  1  0
  2 24  1  0
  3 14  1  0
  3 17  1  0
  4 17  1  0
  4 22  1  0
  4 25  2  0
  6 18  2  0
  7 11  1  0
  7 14  1  0
  7 28  1  0
  8 12  1  0
  8 27  1  0
 10 27  1  0
 10 28  1  0
 11 19  2  0
 11 26  1  0
 12 20  1  0
 13 16  1  0
 13 21  1  0
 14 15  1  0
 15 22  1  0
 16 23  1  0
 16 26  1  0
 18 19  1  0
 18 23  1  0
M  END
$$$$
