
     RDKit          3D

 26 27  0  0  0  0  0  0  0  0999 V2000
   24.1887   34.3378  106.4087 C   0  0  0  0  0  0  0  0  0  0  0  0
   28.7615   34.3111  104.3385 C   0  0  0  0  0  0  0  0  0  0  0  0
   22.7004   36.7325   99.1949 O   0  0  0  0  0  0  0  0  0  0  0  0
   26.2366   34.7990  105.2804 C   0  0  0  0  0  0  0  0  0  0  0  0
   31.6899   33.9144  104.4301 C   0  0  0  0  0  0  0  0  0  0  0  0
   26.0553   36.2040  100.9750 C   0  0  0  0  0  0  0  0  0  0  0  0
   26.4428   33.4546  105.2076 O   0  0  0  0  0  0  0  0  0  0  0  0
   26.2949   33.5571  107.7729 O   0  0  0  0  0  0  0  0  0  0  0  0
   25.1670   35.0976  101.6750 C   0  0  0  0  0  0  0  0  0  0  0  0
   25.2111   35.0885  102.8977 C   0  0  0  0  0  0  0  0  0  0  0  0
   24.6605   35.1951  105.0730 C   0  0  0  0  0  0  0  0  0  0  0  0
   29.4619   36.7482  103.6780 O   0  0  0  0  0  0  0  0  0  0  0  0
   25.1914   34.1884  107.6151 C   0  0  0  0  0  0  0  0  0  0  0  0
   29.7681   35.3614  104.3904 C   0  0  0  0  0  0  0  0  0  0  0  0
   24.8587   37.0561  100.4956 N   0  0  0  0  0  0  0  0  0  0  0  0
   31.2224   35.1657  104.5076 C   0  0  0  0  0  0  0  0  0  0  0  0
   32.0711   33.8061  102.0456 O   0  0  0  0  0  0  0  0  0  0  0  0
   26.3747   34.9139  103.6814 C   0  0  0  0  0  0  0  0  0  0  0  0
   24.7185   34.8309  108.6821 O   0  0  0  0  0  0  0  0  0  0  0  0
   24.0013   35.1483  101.0250 C   0  0  0  0  0  0  0  0  0  0  0  0
   32.9645   33.6983  104.8391 O   0  0  0  0  0  0  0  0  0  0  0  0
   31.1043   33.4509  102.9811 C   0  0  0  0  0  0  0  0  0  0  0  0
   29.9882   32.7252  102.8004 C   0  0  0  0  0  0  0  0  0  0  0  0
   27.7249   34.7036  103.0144 C   0  0  0  0  0  0  0  0  0  0  0  0
   24.0367   34.8312  103.7286 C   0  0  0  0  0  0  0  0  0  0  0  0
   23.8554   36.2624  100.3494 N   0  0  0  0  0  0  0  0  0  0  0  0
  1 11  1  0
  1 13  1  0
  2 14  1  0
  2 24  1  0
  3 26  1  0
  4  7  1  0
  4 11  1  0
  4 18  1  0
  5 16  1  0
  5 21  1  0
  5 22  1  0
  6  9  1  0
  6 15  1  0
  8 13  2  0
  9 10  1  0
  9 20  1  0
 10 18  2  0
 10 25  1  0
 11 25  1  0
 12 14  1  0
 13 19  1  0
 14 16  1  0
 15 26  1  0
 17 22  1  0
 18 24  1  0
 20 26  1  0
 22 23  2  0
M  END
$$$$
