
     RDKit          3D

 28 29  0  0  0  0  0  0  0  0999 V2000
   26.4434   35.5524  103.0671 C   0  0  0  0  0  0  0  0  0  0  0  0
   24.0883   35.7490  100.3012 N   0  0  0  0  0  0  0  0  0  0  0  0
   29.0084   34.4031  104.2957 N   0  0  0  0  0  0  0  0  0  0  0  0
   21.3189   33.8163  107.4009 C   0  0  0  0  0  0  0  0  0  0  0  0
   18.9654   32.8773  107.4990 N   0  0  0  0  0  0  0  0  0  0  0  0
   26.6136   34.7502  104.1102 N   0  0  0  0  0  0  0  0  0  0  0  0
   25.2900   34.3570  104.5910 N   0  0  0  0  0  0  0  0  0  0  0  0
   32.4149   33.8293  101.9540 C   0  0  0  0  0  0  0  0  0  0  0  0
   29.1228   36.9149  103.5428 O   0  0  0  0  0  0  0  0  0  0  0  0
   22.7061   34.2692  107.2335 N   0  0  0  0  0  0  0  0  0  0  0  0
   30.0481   33.7836  103.9839 C   0  0  0  0  0  0  0  0  0  0  0  0
   25.2448   35.7272  102.4995 C   0  0  0  0  0  0  0  0  0  0  0  0
   21.2341   32.7245  106.3299 C   0  0  0  0  0  0  0  0  0  0  0  0
   23.3758   33.8417  106.0752 C   0  0  0  0  0  0  0  0  0  0  0  0
   29.8856   32.7289  102.7757 C   0  0  0  0  0  0  0  0  0  0  0  0
   27.8333   34.0858  104.5326 C   0  0  0  0  0  0  0  0  0  0  0  0
   24.9422   34.1223  105.8538 C   0  0  0  0  0  0  0  0  0  0  0  0
   25.5238   37.4619  100.9627 O   0  0  0  0  0  0  0  0  0  0  0  0
   32.5167   33.4256  103.4683 C   0  0  0  0  0  0  0  0  0  0  0  0
   25.7518   34.4215  106.8728 O   0  0  0  0  0  0  0  0  0  0  0  0
   19.5188   33.3891  106.3406 C   0  0  0  0  0  0  0  0  0  0  0  0
   24.4280   34.7985  103.4473 C   0  0  0  0  0  0  0  0  0  0  0  0
   24.8280   36.2572  101.2799 C   0  0  0  0  0  0  0  0  0  0  0  0
   31.5245   33.9576  105.7016 O   0  0  0  0  0  0  0  0  0  0  0  0
   31.5937   34.1428  104.4540 C   0  0  0  0  0  0  0  0  0  0  0  0
   31.6267   35.6071  104.2016 O   0  0  0  0  0  0  0  0  0  0  0  0
   22.3997   32.9972  105.4424 C   0  0  0  0  0  0  0  0  0  0  0  0
   28.9231   35.6217  104.0156 C   0  0  0  0  0  0  0  0  0  0  0  0
  1  6  1  0
  1 12  2  0
  2 23  1  0
  3 11  1  0
  3 16  1  0
  3 28  1  0
  4 10  1  0
  4 13  1  0
  5 21  1  0
  6  7  1  0
  6 16  1  0
  7 17  1  0
  7 22  1  0
  8 19  1  0
  9 28  1  0
 10 14  2  0
 11 15  1  0
 11 25  1  0
 12 22  1  0
 12 23  1  0
 13 21  1  0
 13 27  1  0
 14 17  1  0
 14 27  1  0
 17 20  2  0
 18 23  2  0
 19 25  1  0
 24 25  1  0
 25 26  1  0
M  END
$$$$
