
     RDKit          3D

 35 37  0  0  0  0  0  0  0  0999 V2000
   25.0099   36.0082  101.4781 C   0  0  0  0  0  0  0  0  0  0  0  0
   25.6315   34.9941  101.8744 N   0  0  0  0  0  0  0  0  0  0  0  0
   23.8720   33.4366  104.6994 C   0  0  0  0  0  0  0  0  0  0  0  0
   22.7349   32.5173  104.4384 C   0  0  0  0  0  0  0  0  0  0  0  0
   24.4839   34.0272  103.6161 C   0  0  0  0  0  0  0  0  0  0  0  0
   28.5973   34.2888  104.2764 C   0  0  0  0  0  0  0  0  0  0  0  0
   27.4528   34.5323   96.5159 C   0  0  0  0  0  0  0  0  0  0  0  0
   29.9107   37.1748  103.6506 O   0  0  0  0  0  0  0  0  0  0  0  0
   25.5610   34.7167  103.3490 C   0  0  0  0  0  0  0  0  0  0  0  0
   24.0767   34.0863  105.9442 C   0  0  0  0  0  0  0  0  0  0  0  0
   23.0205   33.9619  106.9686 C   0  0  0  0  0  0  0  0  0  0  0  0
   26.2093   35.0082  105.4918 C   0  0  0  0  0  0  0  0  0  0  0  0
   23.9267   35.9147   99.2192 C   0  0  0  0  0  0  0  0  0  0  0  0
   25.3554   34.5603  106.4960 C   0  0  0  0  0  0  0  0  0  0  0  0
   21.9885   32.5490  105.5287 C   0  0  0  0  0  0  0  0  0  0  0  0
   31.6244   34.6370  103.7514 N   0  0  0  0  0  0  0  0  0  0  0  0
   32.2098   33.6209  104.1067 C   0  0  0  0  0  0  0  0  0  0  0  0
   28.6027   35.1565   96.7475 C   0  0  0  0  0  0  0  0  0  0  0  0
   33.1030   33.5778  105.0181 O   0  0  0  0  0  0  0  0  0  0  0  0
   28.8127   36.3951   97.0040 O   0  0  0  0  0  0  0  0  0  0  0  0
   28.8110   34.1231  105.8511 C   0  0  0  0  0  0  0  0  0  0  0  0
   30.1658   36.1143  103.8797 C   0  0  0  0  0  0  0  0  0  0  0  0
   26.5403   34.9094  104.1623 C   0  0  0  0  0  0  0  0  0  0  0  0
   24.7604   37.0999  101.5432 O   0  0  0  0  0  0  0  0  0  0  0  0
   29.8536   34.2912   96.9684 O   0  0  0  0  0  0  0  0  0  0  0  0
   26.3026   35.0560   99.2514 C   0  0  0  0  0  0  0  0  0  0  0  0
   30.2684   34.8362  104.0759 C   0  0  0  0  0  0  0  0  0  0  0  0
   27.8821   35.3393  103.7389 O   0  0  0  0  0  0  0  0  0  0  0  0
   31.8334   32.6828  103.3206 O   0  0  0  0  0  0  0  0  0  0  0  0
   30.4440   34.2778  105.7209 C   0  0  0  0  0  0  0  0  0  0  0  0
   25.6029   34.7703  107.7729 O   0  0  0  0  0  0  0  0  0  0  0  0
   21.9152   33.3834  106.5018 C   0  0  0  0  0  0  0  0  0  0  0  0
   26.3846   35.0136   97.5170 C   0  0  0  0  0  0  0  0  0  0  0  0
   25.1896   35.5368   99.7017 N   0  0  0  0  0  0  0  0  0  0  0  0
   22.7152   36.3745   99.0568 N   0  0  0  0  0  0  0  0  0  0  0  0
  1  2  1  0
  1 24  2  0
  1 34  1  0
  2  9  1  0
  3  4  1  0
  3  5  1  0
  3 10  1  0
  4 15  1  0
  5  9  2  0
  6 21  1  0
  6 27  1  0
  6 28  1  0
  7 18  1  0
  7 33  1  0
  8 22  1  0
  9 23  1  0
 10 11  1  0
 10 14  1  0
 11 32  1  0
 12 14  1  0
 12 23  1  0
 13 34  1  0
 13 35  1  0
 14 31  1  0
 15 32  1  0
 16 17  1  0
 16 27  1  0
 17 19  2  0
 17 29  1  0
 18 20  2  0
 18 25  1  0
 21 30  1  0
 22 27  1  0
 23 28  1  0
 26 33  1  0
 26 34  1  0
 27 30  1  0
M  END
$$$$
