
     RDKit          3D

 25 26  0  0  0  0  0  0  0  0999 V2000
   26.4741   35.1380  103.0151 C   0  0  0  0  0  0  0  0  0  0  0  0
   28.7683   34.3006  103.6058 N   0  0  0  0  0  0  0  0  0  0  0  0
   26.2282   35.5904  100.3469 O   0  0  0  0  0  0  0  0  0  0  0  0
   26.0796   34.6496  107.8599 O   0  0  0  0  0  0  0  0  0  0  0  0
   29.0102   36.4720  104.5259 O   0  0  0  0  0  0  0  0  0  0  0  0
   24.8742   37.1216  101.8380 O   0  0  0  0  0  0  0  0  0  0  0  0
   30.9111   34.8242  104.6347 C   0  0  0  0  0  0  0  0  0  0  0  0
   25.1288   36.2665   99.2329 N   0  0  0  0  0  0  0  0  0  0  0  0
   25.6823   34.1644  105.5457 N   0  0  0  0  0  0  0  0  0  0  0  0
   29.5758   32.3935  102.3615 O   0  0  0  0  0  0  0  0  0  0  0  0
   24.9351   35.9133  101.4372 S   0  0  0  0  0  0  0  0  0  0  0  0
   32.2060   33.5389  102.7468 O   0  0  0  0  0  0  0  0  0  0  0  0
   26.8720   34.5887  105.1446 C   0  0  0  0  0  0  0  0  0  0  0  0
   31.1842   33.8174  103.6256 N   0  0  0  0  0  0  0  0  0  0  0  0
   29.7976   33.4244  103.0886 C   0  0  0  0  0  0  0  0  0  0  0  0
   24.6574   33.8363  104.3979 C   0  0  0  0  0  0  0  0  0  0  0  0
   27.3724   34.1787  103.8912 C   0  0  0  0  0  0  0  0  0  0  0  0
   22.4457   36.8217   98.9944 O   0  0  0  0  0  0  0  0  0  0  0  0
   29.4114   35.1893  104.3598 C   0  0  0  0  0  0  0  0  0  0  0  0
   23.8264   35.9889   99.5773 C   0  0  0  0  0  0  0  0  0  0  0  0
   25.2749   34.2161  106.8908 C   0  0  0  0  0  0  0  0  0  0  0  0
   23.7759   35.1307  100.6659 O   0  0  0  0  0  0  0  0  0  0  0  0
   32.0880   34.6994  105.3274 C   0  0  0  0  0  0  0  0  0  0  0  0
   24.9491   34.5189  103.0348 C   0  0  0  0  0  0  0  0  0  0  0  0
   23.9012   33.8098  107.3169 C   0  0  0  0  0  0  0  0  0  0  0  0
  1 17  1  0
  1 24  1  0
  2 15  1  0
  2 17  1  0
  2 19  1  0
  3 11  1  0
  4 21  2  0
  5 19  2  0
  6 11  1  0
  7 14  1  0
  7 19  1  0
  7 23  2  0
  8 20  1  0
  9 13  1  0
  9 16  1  0
  9 21  1  0
 10 15  2  0
 11 22  1  0
 11 24  1  0
 12 14  1  0
 13 17  1  0
 14 15  1  0
 16 24  1  0
 18 20  2  0
 20 22  1  0
 21 25  1  0
M  END
$$$$
