
     RDKit          3D

 26 28  0  0  0  0  0  0  0  0999 V2000
   -1.2084   36.3974  -11.9417 O   0  0  0  0  0  0  0  0  0  0  0  0
   -0.2689   32.6632  -10.9137 C   0  0  0  0  0  0  0  0  0  0  0  0
    2.4653   31.3417  -11.8951 N   0  0  0  0  0  0  0  0  0  0  0  0
   -1.1751   27.2862  -13.4363 C   0  0  0  0  0  0  0  0  0  0  0  0
   -2.9718   33.3416  -11.5754 C   0  0  0  0  0  0  0  0  0  0  0  0
    0.1362   28.5399  -11.7127 O   0  0  0  0  0  0  0  0  0  0  0  0
   -0.9419   33.9744  -10.4513 N   0  0  0  0  0  0  0  0  0  0  0  0
   -1.4847   26.5648  -14.7832 C   0  0  0  0  0  0  0  0  0  0  0  0
   -1.4382   28.7657  -13.4008 N   0  0  0  0  0  0  0  0  0  0  0  0
    0.3393   30.6146  -12.7284 C   0  0  0  0  0  0  0  0  0  0  0  0
   -2.8405   32.1825  -10.6437 C   0  0  0  0  0  0  0  0  0  0  0  0
   -3.8961   34.5390  -13.3201 C   0  0  0  0  0  0  0  0  0  0  0  0
   -1.5272   25.2322  -14.6413 F   0  0  0  0  0  0  0  0  0  0  0  0
   -1.4066   31.5660  -10.8475 C   0  0  0  0  0  0  0  0  0  0  0  0
   -2.6761   27.0657  -15.1794 F   0  0  0  0  0  0  0  0  0  0  0  0
   -1.6770   30.3242  -11.5937 O   0  0  0  0  0  0  0  0  0  0  0  0
    1.0256   34.4298  -11.8298 O   0  0  0  0  0  0  0  0  0  0  0  0
    1.0020   33.1735  -11.6163 C   0  0  0  0  0  0  0  0  0  0  0  0
    2.1924   32.6252  -11.9973 N   0  0  0  0  0  0  0  0  0  0  0  0
   -0.4942   26.8815  -15.6682 F   0  0  0  0  0  0  0  0  0  0  0  0
   -3.0192   35.5631  -13.1344 N   0  0  0  0  0  0  0  0  0  0  0  0
    1.3938   30.6026  -11.5930 N   0  0  0  0  0  0  0  0  0  0  0  0
   -3.9535   33.4656  -12.5494 N   0  0  0  0  0  0  0  0  0  0  0  0
   -1.9943   34.2852  -11.4173 C   0  0  0  0  0  0  0  0  0  0  0  0
   -2.0590   35.4684  -12.1797 C   0  0  0  0  0  0  0  0  0  0  0  0
   -0.6929   29.4764  -12.3057 C   0  0  0  0  0  0  0  0  0  0  0  0
  1 25  2  0
  2  7  1  0
  2 14  1  0
  2 18  1  0
  3 19  1  0
  3 22  1  0
  4  8  1  0
  4  9  1  0
  5 11  1  0
  5 23  1  0
  5 24  2  0
  6 26  1  0
  7 24  1  0
  8 13  1  0
  8 15  1  0
  8 20  1  0
  9 26  1  0
 10 22  1  0
 10 26  1  0
 11 14  1  0
 12 21  1  0
 12 23  2  0
 14 16  1  0
 16 26  1  0
 17 18  2  0
 18 19  1  0
 21 25  1  0
 24 25  1  0
M  END
$$$$
