
     RDKit          3D

  9  8  0  0  0  0  0  0  0  0999 V2000
    1.6790   29.8936  -12.5541 C   0  0  0  0  0  0  0  0  0  0  0  0
    2.4693   32.0703  -11.6325 O   0  0  0  0  0  0  0  0  0  0  0  0
    1.3434   28.8678  -13.3813 O   0  0  0  0  0  0  0  0  0  0  0  0
    0.5678   34.5544  -11.2201 C   0  0  0  0  0  0  0  0  0  0  0  0
    1.1080   32.1153  -11.4962 C   0  0  0  0  0  0  0  0  0  0  0  0
    0.3963   35.4285  -10.3622 O   0  0  0  0  0  0  0  0  0  0  0  0
    1.4580   34.5852  -12.1406 O   0  0  0  0  0  0  0  0  0  0  0  0
    0.1136   33.1020  -10.9374 C   0  0  0  0  0  0  0  0  0  0  0  0
    0.5371   30.8241  -12.1000 C   0  0  0  0  0  0  0  0  0  0  0  0
  1  3  1  0
  1  9  1  0
  2  5  1  0
  4  6  2  0
  4  7  1  0
  4  8  1  0
  5  8  1  0
  5  9  1  0
M  END
$$$$
