
     RDKit          3D

 25 26  0  0  0  0  0  0  0  0999 V2000
    5.9007   -1.0474    1.3396 C   0  0  0  0  0  0  0  0  0  0  0  0
    3.0197    0.3048    0.8544 C   0  0  0  0  0  0  0  0  0  0  0  0
    8.2892   -1.2506    1.0292 C   0  0  0  0  0  0  0  0  0  0  0  0
    3.3006    2.5901    1.1828 C   0  0  0  0  0  0  0  0  0  0  0  0
    1.8741    0.1424    0.2272 N   0  0  0  0  0  0  0  0  0  0  0  0
    5.5994    3.3333    3.7774 P   0  0  0  0  0  0  0  0  0  0  0  0
    4.9427    4.4566    2.9788 O   0  0  0  0  0  0  0  0  0  0  0  0
    2.3350    2.9306    0.4160 C   0  0  0  0  0  0  0  0  0  0  0  0
    4.6118   -2.8318    3.1216 C   0  0  0  0  0  0  0  0  0  0  0  0
    7.1288    3.5543    3.8025 O   0  0  0  0  0  0  0  0  0  0  0  0
    3.7573   -2.1777    2.0991 C   0  0  0  0  0  0  0  0  0  0  0  0
   -0.3196    0.9726   -0.1029 O   0  0  0  0  0  0  0  0  0  0  0  0
    6.0815    0.2166    1.9912 C   0  0  0  0  0  0  0  0  0  0  0  0
    4.9787    1.1289    2.2391 C   0  0  0  0  0  0  0  0  0  0  0  0
    3.7634    1.3012    1.4256 C   0  0  0  0  0  0  0  0  0  0  0  0
    1.1436    2.4923    0.0251 N   0  0  0  0  0  0  0  0  0  0  0  0
    5.1804    1.9752    3.2324 O   0  0  0  0  0  0  0  0  0  0  0  0
    5.2151    3.2274    5.1622 O   0  0  0  0  0  0  0  0  0  0  0  0
    4.9786   -4.0778    2.6445 O   0  0  0  0  0  0  0  0  0  0  0  0
    4.5893   -1.6459    1.0355 C   0  0  0  0  0  0  0  0  0  0  0  0
    7.0450   -1.6693    0.9741 C   0  0  0  0  0  0  0  0  0  0  0  0
    8.5077    0.0127    1.6779 C   0  0  0  0  0  0  0  0  0  0  0  0
    7.4020    0.6945    2.1716 C   0  0  0  0  0  0  0  0  0  0  0  0
    0.0210    3.2715   -0.3682 C   0  0  0  0  0  0  0  0  0  0  0  0
    0.9205    1.1371   -0.0703 C   0  0  0  0  0  0  0  0  0  0  0  0
  1 13  1  0
  1 20  1  0
  1 21  2  0
  2  5  2  0
  2 15  1  0
  3 21  1  0
  3 22  2  0
  4  8  1  0
  4 15  2  0
  5 25  1  0
  6  7  1  0
  6 10  1  0
  6 17  1  0
  6 18  1  0
  8 16  1  0
  9 11  1  0
  9 19  1  0
 11 20  1  0
 12 25  2  0
 13 14  1  0
 13 23  2  0
 14 15  1  0
 14 17  1  0
 16 24  1  0
 16 25  1  0
 22 23  1  0
M  END
$$$$
