
     RDKit          3D

 18 17  0  0  0  0  0  0  0  0999 V2000
    2.9846    0.4447    0.5659 C   0  0  0  0  0  0  0  0  0  0  0  0
    1.6415    0.8203   -0.0060 C   0  0  0  0  0  0  0  0  0  0  0  0
    1.5150    2.3183    0.2092 C   0  0  0  0  0  0  0  0  0  0  0  0
    3.9617   -0.6416    0.1843 C   0  0  0  0  0  0  0  0  0  0  0  0
    6.7957   -2.5273    2.1766 C   0  0  0  0  0  0  0  0  0  0  0  0
    8.3216    2.0692    3.1851 C   0  0  0  0  0  0  0  0  0  0  0  0
    0.3656    2.9575   -0.2452 N   0  0  0  0  0  0  0  0  0  0  0  0
    8.7776    1.5527    1.9116 C   0  0  0  0  0  0  0  0  0  0  0  0
    3.4854    1.6371    1.1537 N   0  0  0  0  0  0  0  0  0  0  0  0
    6.5506    3.5583    4.0354 N   0  0  0  0  0  0  0  0  0  0  0  0
   -0.7621    2.2480   -0.3643 O   0  0  0  0  0  0  0  0  0  0  0  0
    8.2334   -2.7720    1.5572 C   0  0  0  0  0  0  0  0  0  0  0  0
    6.3782    2.6152    2.1233 O   0  0  0  0  0  0  0  0  0  0  0  0
    4.4991   -1.5076    1.3391 C   0  0  0  0  0  0  0  0  0  0  0  0
    7.0652    2.7683    3.0812 C   0  0  0  0  0  0  0  0  0  0  0  0
    6.0385   -1.4905    1.3308 C   0  0  0  0  0  0  0  0  0  0  0  0
    2.7546    2.7802    0.7582 C   0  0  0  0  0  0  0  0  0  0  0  0
    5.2621    4.0388    3.8161 C   0  0  0  0  0  0  0  0  0  0  0  0
  1  2  1  0
  1  4  1  0
  1  9  1  0
  2  3  1  0
  3  7  1  0
  3 17  1  0
  4 14  1  0
  5 12  1  0
  5 16  1  0
  6  8  1  0
  6 15  1  0
  7 11  1  0
  9 17  1  0
 10 15  1  0
 10 18  1  0
 13 15  2  0
 14 16  1  0
M  END
$$$$
