
     RDKit          3D

 25 26  0  0  0  0  0  0  0  0999 V2000
    3.4027    3.9446    0.4722 O   0  0  0  0  0  0  0  0  0  0  0  0
    5.2575   -0.5688    2.0114 N   0  0  0  0  0  0  0  0  0  0  0  0
    2.8990    1.7659    0.3379 C   0  0  0  0  0  0  0  0  0  0  0  0
    6.8776    2.8010    4.9426 O   0  0  0  0  0  0  0  0  0  0  0  0
    6.6831   -0.6845    1.9273 C   0  0  0  0  0  0  0  0  0  0  0  0
    2.5229    3.0607    0.1834 C   0  0  0  0  0  0  0  0  0  0  0  0
    7.2772   -3.0092    2.6715 C   0  0  0  0  0  0  0  0  0  0  0  0
    3.9800   -0.5466   -0.0192 C   0  0  0  0  0  0  0  0  0  0  0  0
    4.6795    0.7542    2.3489 C   0  0  0  0  0  0  0  0  0  0  0  0
    7.3417   -1.9316    1.8027 C   0  0  0  0  0  0  0  0  0  0  0  0
    0.3951    2.1309   -0.3893 C   0  0  0  0  0  0  0  0  0  0  0  0
    9.0158   -3.3817    1.1813 C   0  0  0  0  0  0  0  0  0  0  0  0
    5.5640    1.1882    3.5404 C   0  0  0  0  0  0  0  0  0  0  0  0
    8.3807   -2.1751    0.8418 N   0  0  0  0  0  0  0  0  0  0  0  0
    4.4572   -1.3904    1.1089 C   0  0  0  0  0  0  0  0  0  0  0  0
    2.8305    0.4005    0.1245 C   0  0  0  0  0  0  0  0  0  0  0  0
    6.5064    3.2499    2.5215 O   0  0  0  0  0  0  0  0  0  0  0  0
   -0.9204    3.5568   -1.3778 O   0  0  0  0  0  0  0  0  0  0  0  0
    5.9347    2.8928    3.7732 P   0  0  0  0  0  0  0  0  0  0  0  0
   -1.0248    2.5265   -0.8752 C   0  0  0  0  0  0  0  0  0  0  0  0
    4.7383    3.7682    4.1504 O   0  0  0  0  0  0  0  0  0  0  0  0
    0.9923    3.5090   -0.2471 N   0  0  0  0  0  0  0  0  0  0  0  0
    8.3409   -3.8917    2.3533 C   0  0  0  0  0  0  0  0  0  0  0  0
    0.5510    0.8165   -0.1599 N   0  0  0  0  0  0  0  0  0  0  0  0
    1.6351   -0.0181   -0.0196 C   0  0  0  0  0  0  0  0  0  0  0  0
  1  6  2  0
  2  5  1  0
  2  9  1  0
  2 15  1  0
  3  6  1  0
  3 16  2  0
  4 19  1  0
  5 10  1  0
  6 22  1  0
  7 10  1  0
  7 23  1  0
  8 15  1  0
  8 16  1  0
  9 13  1  0
 10 14  1  0
 11 20  1  0
 11 22  2  0
 11 24  1  0
 12 14  1  0
 12 23  1  0
 13 19  1  0
 16 25  1  0
 17 19  1  0
 18 20  1  0
 19 21  1  0
 24 25  2  0
M  END
$$$$
