
     RDKit          3D

 35 37  0  0  0  0  0  0  0  0999 V2000
    7.2057    1.6610    2.5931 C   0  0  0  0  0  0  0  0  0  0  0  0
    2.5423   -2.3523    3.1705 O   0  0  0  0  0  0  0  0  0  0  0  0
    5.5271   -0.7399    2.9130 N   0  0  0  0  0  0  0  0  0  0  0  0
   -0.3554    2.5836   -0.5382 N   0  0  0  0  0  0  0  0  0  0  0  0
   11.3697    2.0168   -1.4625 C   0  0  0  0  0  0  0  0  0  0  0  0
    5.4678    3.1653    4.3143 C   0  0  0  0  0  0  0  0  0  0  0  0
   -0.1330    1.2936   -0.3901 C   0  0  0  0  0  0  0  0  0  0  0  0
   10.2490    1.3340    0.6401 C   0  0  0  0  0  0  0  0  0  0  0  0
   10.0240   -1.6606    0.9496 C   0  0  0  0  0  0  0  0  0  0  0  0
    7.6492   -1.5016    1.8069 C   0  0  0  0  0  0  0  0  0  0  0  0
    4.7109   -3.3873    3.3606 C   0  0  0  0  0  0  0  0  0  0  0  0
    4.3590   -3.6130    4.6802 O   0  0  0  0  0  0  0  0  0  0  0  0
   10.7614   -0.4786   -1.0304 C   0  0  0  0  0  0  0  0  0  0  0  0
    0.6751    3.3185   -0.2739 N   0  0  0  0  0  0  0  0  0  0  0  0
    3.9607    0.0298    1.1167 C   0  0  0  0  0  0  0  0  0  0  0  0
    3.3724    0.7431    0.1086 C   0  0  0  0  0  0  0  0  0  0  0  0
    9.1214   -1.7051    2.0868 C   0  0  0  0  0  0  0  0  0  0  0  0
    6.6280   -1.8036    2.9121 C   0  0  0  0  0  0  0  0  0  0  0  0
    6.1449   -3.2340    3.0432 C   0  0  0  0  0  0  0  0  0  0  0  0
    3.5791   -0.5382   -0.1190 C   0  0  0  0  0  0  0  0  0  0  0  0
    5.2189    4.3851    4.2060 O   0  0  0  0  0  0  0  0  0  0  0  0
    4.8782    2.0172    3.4248 C   0  0  0  0  0  0  0  0  0  0  0  0
    3.0442    3.6944    0.1183 O   0  0  0  0  0  0  0  0  0  0  0  0
   10.2806   -0.2447    0.4161 C   0  0  0  0  0  0  0  0  0  0  0  0
    7.0475   -4.3531    3.0026 C   0  0  0  0  0  0  0  0  0  0  0  0
    1.9838    2.8845   -0.0717 C   0  0  0  0  0  0  0  0  0  0  0  0
    0.9966    0.6945   -0.1630 C   0  0  0  0  0  0  0  0  0  0  0  0
   10.8524    0.6133   -2.0558 C   0  0  0  0  0  0  0  0  0  0  0  0
    2.1193    1.4129   -0.0253 C   0  0  0  0  0  0  0  0  0  0  0  0
    6.3386    2.8233    5.2040 O   0  0  0  0  0  0  0  0  0  0  0  0
    4.4017   -1.2064    1.9981 C   0  0  0  0  0  0  0  0  0  0  0  0
    3.7694   -2.5524    2.4686 C   0  0  0  0  0  0  0  0  0  0  0  0
   11.6660    1.8170    0.0325 C   0  0  0  0  0  0  0  0  0  0  0  0
   10.0657    2.8471   -1.6387 C   0  0  0  0  0  0  0  0  0  0  0  0
    5.7518    0.7987    2.8848 C   0  0  0  0  0  0  0  0  0  0  0  0
  1 35  1  0
  2 32  1  0
  3 18  1  0
  3 31  1  0
  3 35  1  0
  4  7  1  0
  4 14  1  0
  5 28  1  0
  5 33  1  0
  5 34  1  0
  6 21  2  0
  6 22  1  0
  6 30  1  0
  7 27  2  0
  8 24  1  0
  8 33  1  0
  9 17  1  0
  9 24  1  0
 10 17  2  3
 10 18  1  0
 11 12  1  0
 11 19  1  0
 11 32  1  0
 13 24  2  0
 13 28  1  0
 14 26  1  0
 15 16  1  0
 15 31  1  0
 16 20  1  0
 16 29  1  0
 18 19  1  0
 19 25  1  0
 22 35  1  0
 23 26  2  0
 26 29  1  0
 27 29  1  0
 31 32  1  0
M  END
$$$$
