
     RDKit          3D

 33 34  0  0  0  0  0  0  0  0999 V2000
    4.2049   -0.9463    0.5288 C   0  0  0  0  0  0  0  0  0  0  0  0
    5.9933   -1.9475    2.8942 N   0  0  0  0  0  0  0  0  0  0  0  0
    2.8190    2.9495    0.7046 C   0  0  0  0  0  0  0  0  0  0  0  0
    3.0566   -2.6225    2.1752 C   0  0  0  0  0  0  0  0  0  0  0  0
    1.2719    0.8421   -0.2708 C   0  0  0  0  0  0  0  0  0  0  0  0
    2.7601    0.7842   -0.2151 N   0  0  0  0  0  0  0  0  0  0  0  0
    3.1665    1.6019    0.8879 C   0  0  0  0  0  0  0  0  0  0  0  0
    9.3380   -5.1875    3.6246 C   0  0  0  0  0  0  0  0  0  0  0  0
    5.6088    3.5214    3.0757 P   0  0  0  0  0  0  0  0  0  0  0  0
    8.9956   -4.0461    2.7630 C   0  0  0  0  0  0  0  0  0  0  0  0
    0.7847    2.2369   -0.2464 C   0  0  0  0  0  0  0  0  0  0  0  0
    9.7817   -3.7263    1.4746 C   0  0  0  0  0  0  0  0  0  0  0  0
    6.1581    2.4642    2.0949 O   0  0  0  0  0  0  0  0  0  0  0  0
    4.9893    4.3584    1.7241 O   0  0  0  0  0  0  0  0  0  0  0  0
    7.3039   -2.0465    3.2036 C   0  0  0  0  0  0  0  0  0  0  0  0
    0.9992   -2.6567    3.0021 N   0  0  0  0  0  0  0  0  0  0  0  0
    5.2110    4.4766    4.2050 O   0  0  0  0  0  0  0  0  0  0  0  0
    8.9594    1.3075    4.7887 O   0  0  0  0  0  0  0  0  0  0  0  0
    6.9443   -0.0142    4.6838 C   0  0  0  0  0  0  0  0  0  0  0  0
    7.6476   -3.3743    2.8660 C   0  0  0  0  0  0  0  0  0  0  0  0
    3.2654   -4.2506    3.8651 O   0  0  0  0  0  0  0  0  0  0  0  0
    6.7734    2.3739    5.1028 C   0  0  0  0  0  0  0  0  0  0  0  0
    7.2085    3.3221    4.0442 O   0  0  0  0  0  0  0  0  0  0  0  0
    6.4042   -4.0545    2.6122 N   0  0  0  0  0  0  0  0  0  0  0  0
    5.4547   -3.1470    2.7153 C   0  0  0  0  0  0  0  0  0  0  0  0
    1.8004    3.2213   -0.2140 N   0  0  0  0  0  0  0  0  0  0  0  0
    7.6616    1.2173    5.1904 C   0  0  0  0  0  0  0  0  0  0  0  0
   -0.5137    2.7687   -0.3561 C   0  0  0  0  0  0  0  0  0  0  0  0
    7.9617   -0.9015    3.9383 C   0  0  0  0  0  0  0  0  0  0  0  0
    3.9800   -3.4998    2.8390 C   0  0  0  0  0  0  0  0  0  0  0  0
    3.6372   -0.2756   -0.6791 C   0  0  0  0  0  0  0  0  0  0  0  0
    1.6844   -3.0457    2.2902 C   0  0  0  0  0  0  0  0  0  0  0  0
    3.1451   -1.4083    1.3917 C   0  0  0  0  0  0  0  0  0  0  0  0
  1 31  1  0
  1 33  1  0
  2 15  1  0
  2 25  2  0
  3  7  1  0
  3 26  1  0
  4 30  1  0
  4 32  1  0
  4 33  1  0
  5  6  1  0
  5 11  1  0
  6  7  1  0
  6 31  1  0
  8 10  1  0
  9 13  1  0
  9 14  1  0
  9 17  1  0
  9 23  1  0
 10 12  1  0
 10 20  1  0
 11 26  1  0
 11 28  1  0
 15 20  1  0
 15 29  1  0
 16 32  2  0
 18 27  1  0
 19 27  1  0
 19 29  1  0
 20 24  1  0
 21 30  1  0
 22 23  1  0
 22 27  1  0
 24 25  1  0
 25 30  1  0
M  END
$$$$
