
     RDKit          3D

 31 34  0  0  0  0  0  0  0  0999 V2000
    4.3177   -2.3063    1.8165 C   0  0  0  0  0  0  0  0  0  0  0  0
    3.7560    3.2860    1.3231 O   0  0  0  0  0  0  0  0  0  0  0  0
    1.7267    3.1704   -0.0037 N   0  0  0  0  0  0  0  0  0  0  0  0
    0.5664    2.6414   -0.2483 C   0  0  0  0  0  0  0  0  0  0  0  0
    6.8126   -2.0367    1.7248 C   0  0  0  0  0  0  0  0  0  0  0  0
    6.4271    2.9038    3.6798 C   0  0  0  0  0  0  0  0  0  0  0  0
    2.8221    2.5599    0.6238 C   0  0  0  0  0  0  0  0  0  0  0  0
    8.7771   -2.2070   -0.0843 C   0  0  0  0  0  0  0  0  0  0  0  0
    5.3132    0.2786    5.7090 O   0  0  0  0  0  0  0  0  0  0  0  0
    5.8216    2.4646    2.4868 O   0  0  0  0  0  0  0  0  0  0  0  0
    7.4043   -1.8352    3.1670 C   0  0  0  0  0  0  0  0  0  0  0  0
    1.6285    0.5046    0.1860 C   0  0  0  0  0  0  0  0  0  0  0  0
    2.0369   -2.5560    2.2072 C   0  0  0  0  0  0  0  0  0  0  0  0
    6.4226    0.5921    4.9145 C   0  0  0  0  0  0  0  0  0  0  0  0
    0.3284    1.1353   -0.0016 C   0  0  0  0  0  0  0  0  0  0  0  0
    3.3776   -3.1946    2.4475 C   0  0  0  0  0  0  0  0  0  0  0  0
    9.2361   -3.4278    0.6791 C   0  0  0  0  0  0  0  0  0  0  0  0
   -0.4630    3.4350   -0.6071 N   0  0  0  0  0  0  0  0  0  0  0  0
    2.8218    1.0827    0.5503 C   0  0  0  0  0  0  0  0  0  0  0  0
    1.1077   -2.5147    2.9413 O   0  0  0  0  0  0  0  0  0  0  0  0
    5.8519    4.0874    4.0407 O   0  0  0  0  0  0  0  0  0  0  0  0
    9.5470   -1.2099   -0.9421 C   0  0  0  0  0  0  0  0  0  0  0  0
    4.9186    4.3578    3.0716 C   0  0  0  0  0  0  0  0  0  0  0  0
    7.6453   -1.4062    0.6271 C   0  0  0  0  0  0  0  0  0  0  0  0
    3.6158   -1.2327    1.1486 C   0  0  0  0  0  0  0  0  0  0  0  0
    4.7864    3.3895    2.1458 C   0  0  0  0  0  0  0  0  0  0  0  0
    6.9138    2.0016    4.7914 C   0  0  0  0  0  0  0  0  0  0  0  0
    5.5683   -2.6432    1.8376 O   0  0  0  0  0  0  0  0  0  0  0  0
    2.2015   -1.4282    1.2541 C   0  0  0  0  0  0  0  0  0  0  0  0
    4.0188    0.1109    0.7128 O   0  0  0  0  0  0  0  0  0  0  0  0
    6.9410   -0.4703    4.0038 C   0  0  0  0  0  0  0  0  0  0  0  0
  1 16  1  0
  1 25  1  0
  1 28  1  0
  2  7  1  0
  2 26  1  0
  3  4  1  0
  3  7  1  0
  4 15  1  0
  4 18  2  0
  5 11  1  0
  5 24  1  0
  5 28  1  0
  6 10  1  0
  6 21  1  0
  6 27  1  0
  7 19  1  0
  8 17  1  0
  8 22  1  0
  8 24  1  0
  9 14  1  0
 10 26  1  0
 11 31  2  0
 12 15  1  0
 12 19  2  0
 13 16  1  0
 13 20  2  0
 13 29  1  0
 14 27  1  0
 14 31  2  0
 19 30  1  0
 21 23  1  0
 23 26  1  0
 25 29  1  0
 25 30  1  0
M  END
$$$$
