
     RDKit          3D

 12 14  0  0  0  0  0  0  0  0999 V2000
   48.8436   53.2050   -0.1319 C   0  0  0  0  0  0  0  0  0  0  0  0
   46.7966   52.8596   -1.9110 C   0  0  0  0  0  0  0  0  0  0  0  0
   46.8095   50.7953   -0.7717 C   0  0  0  0  0  0  0  0  0  0  0  0
   46.9451   54.6479    0.8334 C   0  0  0  0  0  0  0  0  0  0  0  0
   47.6245   54.0223   -2.3104 C   0  0  0  0  0  0  0  0  0  0  0  0
   48.2400   54.6259   -0.0161 C   0  0  0  0  0  0  0  0  0  0  0  0
   45.9435   53.8010    0.0999 O   0  0  0  0  0  0  0  0  0  0  0  0
   48.2970   50.8101   -1.2316 C   0  0  0  0  0  0  0  0  0  0  0  0
   47.7536   52.4018    0.7016 C   0  0  0  0  0  0  0  0  0  0  0  0
   46.5497   52.4446   -0.4055 C   0  0  0  0  0  0  0  0  0  0  0  0
   47.6105   55.1488   -1.3329 C   0  0  0  0  0  0  0  0  0  0  0  0
   49.1589   52.1402   -1.2733 C   0  0  0  0  0  0  0  0  0  0  0  0
  1  6  1  0
  1  9  1  0
  1 12  1  0
  2  5  1  0
  2 10  1  0
  3  8  1  0
  3 10  1  0
  4  6  1  0
  4  7  1  0
  5 11  1  0
  6 11  1  0
  7 10  1  0
  8 12  1  0
  9 10  1  0
M  END
$$$$
