
     RDKit          3D

 26 29  0  0  0  0  0  0  0  0999 V2000
   47.8427   51.6529   -1.3390 C   0  0  0  0  0  0  0  0  0  0  0  0
   47.3499   56.7523   -3.7576 O   0  0  0  0  0  0  0  0  0  0  0  0
   48.7122   53.4980    0.5043 C   0  0  0  0  0  0  0  0  0  0  0  0
   48.9929   46.7568   -1.3658 C   0  0  0  0  0  0  0  0  0  0  0  0
   49.8092   48.1074    1.0199 C   0  0  0  0  0  0  0  0  0  0  0  0
   48.8445   48.2086   -1.4707 C   0  0  0  0  0  0  0  0  0  0  0  0
   46.8303   54.8129    1.3744 C   0  0  0  0  0  0  0  0  0  0  0  0
   47.7241   46.7650    0.7228 C   0  0  0  0  0  0  0  0  0  0  0  0
   48.1809   55.0125    0.6525 C   0  0  0  0  0  0  0  0  0  0  0  0
   47.4809   54.0929   -1.4767 C   0  0  0  0  0  0  0  0  0  0  0  0
   47.9030   48.9681   -0.4821 C   0  0  0  0  0  0  0  0  0  0  0  0
   46.9591   50.2661    0.4262 C   0  0  0  0  0  0  0  0  0  0  0  0
   46.3957   52.7785    0.3088 C   0  0  0  0  0  0  0  0  0  0  0  0
   48.2020   48.2308    0.8717 C   0  0  0  0  0  0  0  0  0  0  0  0
   45.8197   54.1482    0.5371 C   0  0  0  0  0  0  0  0  0  0  0  0
   49.5311   50.8161    0.2136 C   0  0  0  0  0  0  0  0  0  0  0  0
   48.5960   56.1269   -1.7663 C   0  0  0  0  0  0  0  0  0  0  0  0
   48.9132   46.1379   -0.0209 C   0  0  0  0  0  0  0  0  0  0  0  0
   47.9969   54.4821   -2.7158 N   0  0  0  0  0  0  0  0  0  0  0  0
   47.7327   57.0102   -2.5628 C   0  0  0  0  0  0  0  0  0  0  0  0
   47.7942   55.3853   -0.7502 C   0  0  0  0  0  0  0  0  0  0  0  0
   45.7552   50.1779   -0.2726 O   0  0  0  0  0  0  0  0  0  0  0  0
   47.6425   52.9323   -0.4834 C   0  0  0  0  0  0  0  0  0  0  0  0
   48.1518   50.4531   -0.4257 C   0  0  0  0  0  0  0  0  0  0  0  0
   48.7800   52.0343   -2.4473 C   0  0  0  0  0  0  0  0  0  0  0  0
   50.1236   46.6838    0.7924 C   0  0  0  0  0  0  0  0  0  0  0  0
  1 23  1  0
  1 24  1  0
  1 25  1  0
  2 20  2  0
  3  9  1  0
  3 23  1  0
  4  6  1  0
  4 18  1  0
  5 14  1  0
  5 26  1  0
  6 11  1  0
  7  9  1  0
  7 15  1  0
  8 14  1  0
  8 18  1  0
  9 21  1  0
 10 19  1  0
 10 21  1  0
 10 23  1  0
 11 14  1  0
 11 24  1  0
 12 22  1  0
 12 24  1  0
 13 15  1  0
 13 23  1  0
 16 24  1  0
 17 20  1  0
 17 21  1  0
 18 26  1  0
M  END
$$$$
