
     RDKit          3D

  6  6  0  0  0  0  0  0  0  0999 V2000
   46.1574   53.5499   -1.5272 C   0  0  0  0  0  0  0  0  0  0  0  0
   47.1487   54.2875   -2.1118 C   0  0  0  0  0  0  0  0  0  0  0  0
   46.4270   54.7210    0.4868 C   0  0  0  0  0  0  0  0  0  0  0  0
   47.7424   55.2914   -1.4006 C   0  0  0  0  0  0  0  0  0  0  0  0
   45.7797   53.7745   -0.2470 N   0  0  0  0  0  0  0  0  0  0  0  0
   47.3923   55.5061   -0.0814 C   0  0  0  0  0  0  0  0  0  0  0  0
  1  2  1  0
  1  5  2  0
  2  4  2  0
  3  5  1  0
  3  6  2  0
  4  6  1  0
M  END
$$$$
