
     RDKit          3D

 10 10  0  0  0  0  0  0  0  0999 V2000
   46.6678   54.1279    0.5503 C   0  0  0  0  0  0  0  0  0  0  0  0
   47.6934   56.2679    0.1896 O   0  0  0  0  0  0  0  0  0  0  0  0
   46.5494   52.6977    0.0241 C   0  0  0  0  0  0  0  0  0  0  0  0
   47.3244   50.3814   -1.9041 N   0  0  0  0  0  0  0  0  0  0  0  0
   45.7170   52.7191   -1.1078 O   0  0  0  0  0  0  0  0  0  0  0  0
   47.7435   54.8526   -0.3431 C   0  0  0  0  0  0  0  0  0  0  0  0
   47.9582   52.2952   -0.3655 C   0  0  0  0  0  0  0  0  0  0  0  0
   48.7513   53.6713   -0.5540 C   0  0  0  0  0  0  0  0  0  0  0  0
   48.2237   51.4493   -1.5833 C   0  0  0  0  0  0  0  0  0  0  0  0
   47.4273   55.3272   -1.8063 C   0  0  0  0  0  0  0  0  0  0  0  0
  1  3  1  0
  1  6  1  0
  2  6  1  0
  3  5  1  0
  3  7  1  0
  4  9  1  0
  6  8  1  0
  6 10  1  0
  7  8  1  0
  7  9  1  0
M  END
$$$$
