
     RDKit          3D

 23 25  0  0  0  0  0  0  0  0999 V2000
    3.5840  -10.7012   17.0981 C   0  0  0  0  0  0  0  0  0  0  0  0
    2.6350  -10.6332   14.6970 C   0  0  0  0  0  0  0  0  0  0  0  0
    6.3663  -12.6542   21.8450 C   0  0  0  0  0  0  0  0  0  0  0  0
    3.7835   -9.1511   19.3810 C   0  0  0  0  0  0  0  0  0  0  0  0
    2.0943   -8.1980   15.9218 C   0  0  0  0  0  0  0  0  0  0  0  0
    3.5602  -13.5860   14.3526 C   0  0  0  0  0  0  0  0  0  0  0  0
    2.3399   -8.3631   13.5318 C   0  0  0  0  0  0  0  0  0  0  0  0
    3.3395   -8.1900   16.8340 C   0  0  0  0  0  0  0  0  0  0  0  0
    5.0565  -11.0414   17.8342 C   0  0  0  0  0  0  0  0  0  0  0  0
    4.1231  -12.6795   15.4868 C   0  0  0  0  0  0  0  0  0  0  0  0
    2.9951  -11.5711   15.8732 C   0  0  0  0  0  0  0  0  0  0  0  0
    3.1312   -9.3578   17.8976 C   0  0  0  0  0  0  0  0  0  0  0  0
    1.6662  -12.4475   16.1252 C   0  0  0  0  0  0  0  0  0  0  0  0
    2.1358   -9.2042   14.7994 C   0  0  0  0  0  0  0  0  0  0  0  0
    2.9491  -12.7630   13.2322 C   0  0  0  0  0  0  0  0  0  0  0  0
    2.2433  -11.3978   13.4346 C   0  0  0  0  0  0  0  0  0  0  0  0
    4.5393   -9.3921   20.7893 C   0  0  0  0  0  0  0  0  0  0  0  0
    5.1879  -10.5183   21.5733 C   0  0  0  0  0  0  0  0  0  0  0  0
    5.9881  -11.0290   19.2416 C   0  0  0  0  0  0  0  0  0  0  0  0
    3.6857  -12.7534   12.0522 O   0  0  0  0  0  0  0  0  0  0  0  0
    6.0455  -11.5136   20.7638 C   0  0  0  0  0  0  0  0  0  0  0  0
    1.5644  -11.0737   12.1781 N   0  0  0  0  0  0  0  0  0  0  0  0
    2.3744   -6.9481   13.7887 O   0  0  0  0  0  0  0  0  0  0  0  0
  1  9  1  0
  1 11  1  0
  1 12  1  0
  2 11  1  0
  2 14  1  0
  2 16  1  0
  3 21  1  0
  4 12  1  0
  4 17  1  0
  5  8  1  0
  5 14  1  0
  6 10  1  0
  6 15  1  0
  7 14  1  0
  7 23  1  0
  8 12  1  0
  9 19  1  0
 10 11  1  0
 11 13  1  0
 15 16  1  0
 15 20  1  0
 16 22  1  0
 17 18  1  0
 18 21  2  3
 19 21  1  0
M  END
$$$$
