
     RDKit          3D

 24 26  0  0  0  0  0  0  0  0999 V2000
    3.3715  -10.7127   15.6224 C   0  0  0  0  0  0  0  0  0  0  0  0
    3.2728  -10.9158   14.1661 C   0  0  0  0  0  0  0  0  0  0  0  0
    2.6520  -10.5886   11.4359 N   0  0  0  0  0  0  0  0  0  0  0  0
    5.4137  -11.1082   17.4210 C   0  0  0  0  0  0  0  0  0  0  0  0
    3.3907  -11.9516   13.2206 C   0  0  0  0  0  0  0  0  0  0  0  0
    2.7247   -9.5219   15.9589 N   0  0  0  0  0  0  0  0  0  0  0  0
    2.7263   -6.3241   14.3274 N   0  0  0  0  0  0  0  0  0  0  0  0
    2.5681   -7.4570   15.0555 C   0  0  0  0  0  0  0  0  0  0  0  0
    0.6098  -10.1045   18.3845 C   0  0  0  0  0  0  0  0  0  0  0  0
    2.6148   -9.5600   12.2832 C   0  0  0  0  0  0  0  0  0  0  0  0
    2.7625   -8.7256   14.6415 C   0  0  0  0  0  0  0  0  0  0  0  0
    6.4262  -12.0554   22.0867 C   0  0  0  0  0  0  0  0  0  0  0  0
    1.2441   -8.9408   17.9343 O   0  0  0  0  0  0  0  0  0  0  0  0
    3.0411  -13.5608   16.1107 C   0  0  0  0  0  0  0  0  0  0  0  0
    4.4117  -11.4497   16.3920 C   0  0  0  0  0  0  0  0  0  0  0  0
    2.0675   -8.6938   16.9110 C   0  0  0  0  0  0  0  0  0  0  0  0
    2.8944   -9.6752   13.6327 C   0  0  0  0  0  0  0  0  0  0  0  0
    6.1947  -11.1359   19.8178 C   0  0  0  0  0  0  0  0  0  0  0  0
    5.7523  -12.0060   18.6724 C   0  0  0  0  0  0  0  0  0  0  0  0
    4.5369  -12.9657   15.9809 C   0  0  0  0  0  0  0  0  0  0  0  0
    5.5064  -11.3748   21.0988 C   0  0  0  0  0  0  0  0  0  0  0  0
    2.1654   -7.3405   16.3912 C   0  0  0  0  0  0  0  0  0  0  0  0
    3.0885  -11.8209   11.9101 N   0  0  0  0  0  0  0  0  0  0  0  0
    6.3501  -13.4831   22.1699 O   0  0  0  0  0  0  0  0  0  0  0  0
  1  2  1  0
  1  6  1  0
  1 15  1  0
  2  5  1  0
  2 17  1  0
  3 10  2  0
  3 23  1  0
  4 15  1  0
  4 19  1  0
  5 23  2  0
  6 11  1  0
  6 16  1  0
  7  8  1  0
  8 11  1  0
  8 22  1  0
  9 13  1  0
 10 17  1  0
 11 17  2  0
 12 21  1  0
 12 24  1  0
 13 16  1  0
 14 20  1  0
 15 20  1  0
 16 22  1  0
 18 19  1  0
 18 21  1  0
M  END
$$$$
