
     RDKit          3D

 22 24  0  0  0  0  0  0  0  0999 V2000
    1.5856   -5.2266   16.3937 O   0  0  0  0  0  0  0  0  0  0  0  0
    1.9742   -2.2612   16.8994 O   0  0  0  0  0  0  0  0  0  0  0  0
   -1.4972   -4.5730   14.8154 S   0  0  0  0  0  0  0  0  0  0  0  0
    1.8718   -1.5391   18.2101 C   0  0  0  0  0  0  0  0  0  0  0  0
    4.2745   -2.3175   16.6130 C   0  0  0  0  0  0  0  0  0  0  0  0
    1.9984   -1.3806   19.7357 N   0  0  0  0  0  0  0  0  0  0  0  0
   -1.5354   -3.0440   15.7614 C   0  0  0  0  0  0  0  0  0  0  0  0
   -0.4530   -2.5584   17.9968 S   0  0  0  0  0  0  0  0  0  0  0  0
    1.3770   -4.3458   15.3040 C   0  0  0  0  0  0  0  0  0  0  0  0
    3.3303   -1.1487   20.0696 C   0  0  0  0  0  0  0  0  0  0  0  0
    0.2880   -1.0686   18.0624 C   0  0  0  0  0  0  0  0  0  0  0  0
    0.2808   -2.7123   20.6971 N   0  0  0  0  0  0  0  0  0  0  0  0
   -0.3042   -3.0634   16.6034 C   0  0  0  0  0  0  0  0  0  0  0  0
    1.0609   -1.6324   20.7584 C   0  0  0  0  0  0  0  0  0  0  0  0
    1.0615   -2.9222   15.9631 C   0  0  0  0  0  0  0  0  0  0  0  0
    0.1357   -4.7866   14.3876 C   0  0  0  0  0  0  0  0  0  0  0  0
    3.3987   -1.9455   17.7935 C   0  0  0  0  0  0  0  0  0  0  0  0
    2.4444   -4.2580   14.4862 O   0  0  0  0  0  0  0  0  0  0  0  0
    5.6244   -2.2416   16.9971 O   0  0  0  0  0  0  0  0  0  0  0  0
    4.1583   -1.9477   19.1472 C   0  0  0  0  0  0  0  0  0  0  0  0
    3.6952    0.0086   20.4974 O   0  0  0  0  0  0  0  0  0  0  0  0
    1.2222   -1.0026   21.8658 O   0  0  0  0  0  0  0  0  0  0  0  0
  1  9  1  0
  2  4  1  0
  2 15  1  0
  3  7  1  0
  3 16  1  0
  4  6  1  0
  4 11  1  0
  4 17  1  0
  5 17  1  0
  5 19  1  0
  6 10  1  0
  6 14  1  0
  7 13  1  0
  8 11  1  0
  8 13  1  0
  9 15  1  0
  9 16  1  0
  9 18  1  0
 10 20  1  0
 10 21  2  0
 12 14  1  0
 13 15  1  0
 14 22  2  0
 17 20  1  0
M  END
$$$$
