
     RDKit          3D

 22 22  0  0  0  0  0  0  0  0999 V2000
    2.0711   -3.2686   17.2590 C   0  0  0  0  0  0  0  0  0  0  0  0
    1.3680   -0.3529   20.0307 C   0  0  0  0  0  0  0  0  0  0  0  0
    1.6272   -5.0486   15.4596 O   0  0  0  0  0  0  0  0  0  0  0  0
    3.5249   -0.6956   21.1243 F   0  0  0  0  0  0  0  0  0  0  0  0
   -0.0419    1.4138   20.6716 O   0  0  0  0  0  0  0  0  0  0  0  0
    0.2445    0.2117   20.7905 C   0  0  0  0  0  0  0  0  0  0  0  0
    0.0548   -3.2785   15.8585 C   0  0  0  0  0  0  0  0  0  0  0  0
    0.8434   -2.5814   17.0277 O   0  0  0  0  0  0  0  0  0  0  0  0
    4.0505   -2.0334   17.2594 O   0  0  0  0  0  0  0  0  0  0  0  0
    1.1636   -3.8432   14.9389 C   0  0  0  0  0  0  0  0  0  0  0  0
    2.4135   -1.3866   20.5772 C   0  0  0  0  0  0  0  0  0  0  0  0
   -0.7109   -4.3224   16.5939 O   0  0  0  0  0  0  0  0  0  0  0  0
    2.9610   -2.1696   19.2997 C   0  0  0  0  0  0  0  0  0  0  0  0
   -0.5713   -0.5778   21.3377 O   0  0  0  0  0  0  0  0  0  0  0  0
    1.1109   -4.9537   14.0418 C   0  0  0  0  0  0  0  0  0  0  0  0
    1.1429   -0.6863   18.6004 C   0  0  0  0  0  0  0  0  0  0  0  0
    5.2210   -2.4493   16.9253 O   0  0  0  0  0  0  0  0  0  0  0  0
   -0.0181   -5.1844   13.4728 O   0  0  0  0  0  0  0  0  0  0  0  0
    3.1006   -2.7501   16.3300 O   0  0  0  0  0  0  0  0  0  0  0  0
    1.8887   -2.0050   18.1815 C   0  0  0  0  0  0  0  0  0  0  0  0
    2.1454   -5.2478   13.3164 O   0  0  0  0  0  0  0  0  0  0  0  0
    1.8328   -2.3059   21.4297 O   0  0  0  0  0  0  0  0  0  0  0  0
  1  8  1  0
  1 19  1  0
  1 20  1  0
  2  6  1  0
  2 11  1  0
  2 16  1  0
  3 10  1  0
  4 11  1  0
  5  6  2  0
  6 14  1  0
  7  8  1  0
  7 10  1  0
  7 12  1  0
  9 17  1  0
  9 19  1  0
 10 15  1  0
 11 13  1  0
 11 22  1  0
 13 20  1  0
 15 18  2  0
 15 21  1  0
 16 20  1  0
M  END
$$$$
