
     RDKit          3D

 20 23  0  0  0  0  0  0  0  0999 V2000
    3.2783   -1.0331   20.3105 C   0  0  0  0  0  0  0  0  0  0  0  0
    1.1202   -3.6080   16.6384 C   0  0  0  0  0  0  0  0  0  0  0  0
    1.0818    0.2917   19.1242 C   0  0  0  0  0  0  0  0  0  0  0  0
    4.5318   -2.2623   16.7953 O   0  0  0  0  0  0  0  0  0  0  0  0
    0.8951   -1.2699   18.9523 C   0  0  0  0  0  0  0  0  0  0  0  0
    0.8698   -3.0732   17.9748 N   0  0  0  0  0  0  0  0  0  0  0  0
    3.3692   -2.9044   17.2972 C   0  0  0  0  0  0  0  0  0  0  0  0
    0.7360   -1.8112   20.4412 C   0  0  0  0  0  0  0  0  0  0  0  0
    0.9515   -3.2830   20.5996 O   0  0  0  0  0  0  0  0  0  0  0  0
    2.3793   -3.2756   16.1695 C   0  0  0  0  0  0  0  0  0  0  0  0
    1.8959   -0.9706   21.1147 C   0  0  0  0  0  0  0  0  0  0  0  0
    0.2464   -4.3704   15.8098 C   0  0  0  0  0  0  0  0  0  0  0  0
    2.6562   -3.2949   14.8285 C   0  0  0  0  0  0  0  0  0  0  0  0
    3.8180   -3.9610   18.1247 O   0  0  0  0  0  0  0  0  0  0  0  0
    0.6284   -4.5201   14.4513 C   0  0  0  0  0  0  0  0  0  0  0  0
    1.7784   -3.9407   13.9768 N   0  0  0  0  0  0  0  0  0  0  0  0
    2.1589   -2.0791   18.2918 C   0  0  0  0  0  0  0  0  0  0  0  0
    1.3964    0.5203   20.6637 C   0  0  0  0  0  0  0  0  0  0  0  0
    3.2818   -0.8937   18.7420 C   0  0  0  0  0  0  0  0  0  0  0  0
   -0.1404   -5.2525   13.4943 C   0  0  0  0  0  0  0  0  0  0  0  0
  1 11  1  0
  1 19  1  0
  2  6  1  0
  2 10  2  0
  2 12  1  0
  3  5  1  0
  3 18  1  0
  4  7  1  0
  5  8  1  0
  5 17  1  0
  6 17  1  0
  7 10  1  0
  7 14  1  0
  7 17  1  0
  8  9  1  0
  8 11  1  0
 10 13  1  0
 11 18  1  0
 12 15  2  0
 13 16  2  0
 15 16  1  0
 15 20  1  0
 17 19  1  0
M  END
$$$$
