
     RDKit          3D

 20 22  0  0  0  0  0  0  0  0999 V2000
    0.8220   -4.0315   15.6722 C   0  0  0  0  0  0  0  0  0  0  0  0
    0.6660   -2.0508   19.4241 C   0  0  0  0  0  0  0  0  0  0  0  0
    0.6187   -2.8078   18.1464 N   0  0  0  0  0  0  0  0  0  0  0  0
    1.8504   -0.0875   18.4553 O   0  0  0  0  0  0  0  0  0  0  0  0
    4.3433   -1.9129   19.4662 C   0  0  0  0  0  0  0  0  0  0  0  0
    1.9813   -1.2083   19.3634 C   0  0  0  0  0  0  0  0  0  0  0  0
   -0.5959   -3.3715   17.6815 C   0  0  0  0  0  0  0  0  0  0  0  0
    2.0914   -3.6101   16.3695 C   0  0  0  0  0  0  0  0  0  0  0  0
    2.1643   -0.6691   20.8201 C   0  0  0  0  0  0  0  0  0  0  0  0
    2.9238    0.3407   21.0295 O   0  0  0  0  0  0  0  0  0  0  0  0
    2.0004   -3.3212   17.8837 C   0  0  0  0  0  0  0  0  0  0  0  0
    3.0924   -2.2186   18.4605 C   0  0  0  0  0  0  0  0  0  0  0  0
   -1.4037   -4.8498   15.9948 O   0  0  0  0  0  0  0  0  0  0  0  0
    1.0057   -4.8353   14.4160 C   0  0  0  0  0  0  0  0  0  0  0  0
    2.4029   -5.2098   14.2949 O   0  0  0  0  0  0  0  0  0  0  0  0
    1.3475   -1.0424   21.7389 O   0  0  0  0  0  0  0  0  0  0  0  0
   -0.3386   -4.3197   16.5611 C   0  0  0  0  0  0  0  0  0  0  0  0
    5.0180   -2.4701   16.9041 O   0  0  0  0  0  0  0  0  0  0  0  0
    2.8939   -2.4591   15.9463 O   0  0  0  0  0  0  0  0  0  0  0  0
    3.7159   -1.9066   16.9963 C   0  0  0  0  0  0  0  0  0  0  0  0
  1  8  1  0
  1 14  1  0
  1 17  1  0
  2  3  1  0
  2  6  1  0
  3  7  1  0
  3 11  1  0
  4  6  1  0
  5 12  1  0
  6  9  1  0
  6 12  1  0
  7 17  1  0
  8 11  1  0
  8 19  1  0
  9 10  2  0
  9 16  1  0
 11 12  1  0
 12 20  1  0
 13 17  1  0
 14 15  1  0
 18 20  1  0
 19 20  1  0
M  END
$$$$
