
     RDKit          3D

 11 11  0  0  0  0  0  0  0  0999 V2000
   62.9058   50.0244  110.8983 C   0  0  0  0  0  0  0  0  0  0  0  0
   63.6396   53.0771  110.5461 C   0  0  0  0  0  0  0  0  0  0  0  0
   65.0104   55.1000  110.8391 O   0  0  0  0  0  0  0  0  0  0  0  0
   64.5708   54.0995  109.8909 C   0  0  0  0  0  0  0  0  0  0  0  0
   62.2322   53.0695  108.5190 C   0  0  0  0  0  0  0  0  0  0  0  0
   63.9842   54.7690  108.6868 C   0  0  0  0  0  0  0  0  0  0  0  0
   62.8562   52.1567  109.5766 C   0  0  0  0  0  0  0  0  0  0  0  0
   62.0324   50.9544  110.0551 C   0  0  0  0  0  0  0  0  0  0  0  0
   61.5646   50.0819  108.8713 C   0  0  0  0  0  0  0  0  0  0  0  0
   60.9407   51.4643  110.7313 O   0  0  0  0  0  0  0  0  0  0  0  0
   62.4520   54.6026  108.6799 C   0  0  0  0  0  0  0  0  0  0  0  0
  1  8  1  0
  2  4  1  0
  2  7  1  0
  3  4  1  0
  4  6  1  0
  5  7  1  0
  5 11  1  0
  6 11  1  0
  7  8  1  0
  8  9  1  0
  8 10  1  0
M  END
$$$$
