
     RDKit          3D

 28 30  0  0  0  0  0  0  0  0999 V2000
   62.8717   56.1230  108.4745 C   0  0  0  0  0  0  0  0  0  0  0  0
   65.2006   55.7488  108.7737 O   0  0  0  0  0  0  0  0  0  0  0  0
   64.1014   56.4770  109.3109 C   0  0  0  0  0  0  0  0  0  0  0  0
   61.2397   54.3379  108.2568 C   0  0  0  0  0  0  0  0  0  0  0  0
   60.3518   56.9408  108.5781 C   0  0  0  0  0  0  0  0  0  0  0  0
   62.4461   51.8836  109.6392 C   0  0  0  0  0  0  0  0  0  0  0  0
   64.1090   53.3039  110.5803 N   0  0  0  0  0  0  0  0  0  0  0  0
   62.5647   54.6350  108.8849 C   0  0  0  0  0  0  0  0  0  0  0  0
   64.3995   57.9615  109.4138 C   0  0  0  0  0  0  0  0  0  0  0  0
   64.6449   55.7997  111.5927 O   0  0  0  0  0  0  0  0  0  0  0  0
   63.5940   55.8254  110.6641 C   0  0  0  0  0  0  0  0  0  0  0  0
   61.4698   49.5686  108.5750 F   0  0  0  0  0  0  0  0  0  0  0  0
   61.7251   50.0690  110.7781 C   0  0  0  0  0  0  0  0  0  0  0  0
   61.6423   51.9060  107.3822 F   0  0  0  0  0  0  0  0  0  0  0  0
   61.9043   51.7961  108.6439 C   0  0  0  0  0  0  0  0  0  0  0  0
   61.3240   50.9440  111.7403 F   0  0  0  0  0  0  0  0  0  0  0  0
   60.1352   56.3597  107.2425 C   0  0  0  0  0  0  0  0  0  0  0  0
   63.9995   50.7379  111.0424 C   0  0  0  0  0  0  0  0  0  0  0  0
   60.8266   48.9988  110.8819 F   0  0  0  0  0  0  0  0  0  0  0  0
   61.8359   50.6715  109.4109 C   0  0  0  0  0  0  0  0  0  0  0  0
   63.5159   58.7367  110.0938 O   0  0  0  0  0  0  0  0  0  0  0  0
   60.9446   55.1227  106.9542 C   0  0  0  0  0  0  0  0  0  0  0  0
   63.2268   54.3940  110.1901 C   0  0  0  0  0  0  0  0  0  0  0  0
   62.9922   49.0681  112.4755 F   0  0  0  0  0  0  0  0  0  0  0  0
   63.3528   48.4856  110.3139 F   0  0  0  0  0  0  0  0  0  0  0  0
   61.7295   57.0972  108.8987 C   0  0  0  0  0  0  0  0  0  0  0  0
   63.5156   51.9616  110.5326 C   0  0  0  0  0  0  0  0  0  0  0  0
   63.1118   49.5765  111.1728 C   0  0  0  0  0  0  0  0  0  0  0  0
  1  3  1  0
  1  8  1  0
  1 26  1  0
  2  3  1  0
  3  9  1  0
  3 11  1  0
  4  8  1  0
  4 22  1  0
  5 17  1  0
  5 26  1  0
  6 15  2  0
  6 27  2  0
  7 23  1  0
  7 27  1  0
  8 23  1  0
  9 21  1  0
 10 11  1  0
 11 23  1  0
 12 20  1  0
 13 16  1  0
 13 19  1  0
 13 20  1  0
 13 28  1  0
 14 15  1  0
 15 20  1  0
 17 22  1  0
 18 27  1  0
 18 28  1  0
 24 28  1  0
 25 28  1  0
M  END
$$$$
