
     RDKit          3D

  6  5  0  0  0  0  0  0  0  0999 V2000
   21.6854   20.9462   21.1467 O   0  0  0  0  0  0  0  0  0  0  0  0
   21.3645   22.4688   19.2876 C   0  0  0  0  0  0  0  0  0  0  0  0
   20.4566   22.7747   21.4374 O   0  0  0  0  0  0  0  0  0  0  0  0
   22.1635   23.4637   18.5788 C   0  0  0  0  0  0  0  0  0  0  0  0
   21.0548   21.2770   18.4286 C   0  0  0  0  0  0  0  0  0  0  0  0
   21.2240   22.0714   20.7795 C   0  0  0  0  0  0  0  0  0  0  0  0
  1  6  2  0
  2  4  1  0
  2  5  1  0
  2  6  1  0
  3  6  1  0
M  END
$$$$
