
     RDKit          3D

 23 24  0  0  0  0  0  0  0  0999 V2000
   23.3355   23.9993   18.4877 C   0  0  0  0  0  0  0  0  0  0  0  0
   22.8088   21.0067   20.2531 C   0  0  0  0  0  0  0  0  0  0  0  0
   21.7931   23.1979   20.5185 C   0  0  0  0  0  0  0  0  0  0  0  0
   21.8905   17.8971   20.6529 C   0  0  0  0  0  0  0  0  0  0  0  0
   21.4031   23.8650   23.1501 C   0  0  0  0  0  0  0  0  0  0  0  0
   24.1248   24.7565   17.4826 C   0  0  0  0  0  0  0  0  0  0  0  0
   24.0087   26.2868   17.6482 C   0  0  0  0  0  0  0  0  0  0  0  0
   23.4364   19.7957   20.7116 C   0  0  0  0  0  0  0  0  0  0  0  0
   23.0739   18.7157   19.9927 C   0  0  0  0  0  0  0  0  0  0  0  0
   19.5890   23.6418   21.3675 C   0  0  0  0  0  0  0  0  0  0  0  0
   21.5063   20.9521   19.4705 C   0  0  0  0  0  0  0  0  0  0  0  0
   23.8969   19.7361   21.9540 O   0  0  0  0  0  0  0  0  0  0  0  0
   25.7977   22.9315   16.8651 C   0  0  0  0  0  0  0  0  0  0  0  0
   23.0912   22.4273   20.6610 C   0  0  0  0  0  0  0  0  0  0  0  0
   19.4430   22.7869   20.1138 C   0  0  0  0  0  0  0  0  0  0  0  0
   25.5773   24.3604   17.3331 C   0  0  0  0  0  0  0  0  0  0  0  0
   20.9922   23.5856   21.7903 C   0  0  0  0  0  0  0  0  0  0  0  0
   18.5628   24.6847   22.0797 O   0  0  0  0  0  0  0  0  0  0  0  0
   24.5816   22.0543   16.7170 C   0  0  0  0  0  0  0  0  0  0  0  0
   23.7323   22.5894   21.9181 O   0  0  0  0  0  0  0  0  0  0  0  0
   24.0263   23.0319   19.5296 C   0  0  0  0  0  0  0  0  0  0  0  0
   20.8190   22.3484   19.6367 C   0  0  0  0  0  0  0  0  0  0  0  0
   20.3203   23.7241   24.1179 N   0  0  0  0  0  0  0  0  0  0  0  0
  1  6  1  0
  1 21  2  3
  2  8  1  0
  2 11  1  0
  2 14  1  0
  3 14  1  0
  3 17  1  0
  3 22  1  0
  4  9  1  0
  5 17  1  0
  5 23  1  0
  6  7  1  0
  6 16  1  0
  8  9  1  0
  8 12  1  0
 10 15  1  0
 10 17  1  0
 10 18  1  0
 11 22  1  0
 13 16  1  0
 13 19  1  0
 14 20  1  0
 14 21  1  0
 15 22  1  0
M  END
$$$$
