
     RDKit          3D

 29 30  0  0  0  0  0  0  0  0999 V2000
   24.0681   24.4117   20.6784 C   0  0  0  0  0  0  0  0  0  0  0  0
   22.8983   25.5631   17.1809 C   0  0  0  0  0  0  0  0  0  0  0  0
   21.5485   24.1631   15.8066 C   0  0  0  0  0  0  0  0  0  0  0  0
   25.3701   25.2998   18.0076 C   0  0  0  0  0  0  0  0  0  0  0  0
   25.9478   19.4649   19.9620 C   0  0  0  0  0  0  0  0  0  0  0  0
   22.4495   19.2941   21.2700 C   0  0  0  0  0  0  0  0  0  0  0  0
   20.6398   23.1370   20.6015 C   0  0  0  0  0  0  0  0  0  0  0  0
   21.2482   19.1734   20.4441 C   0  0  0  0  0  0  0  0  0  0  0  0
   20.0369   21.0345   19.3165 C   0  0  0  0  0  0  0  0  0  0  0  0
   22.2440   24.6935   22.3817 C   0  0  0  0  0  0  0  0  0  0  0  0
   18.8795   24.3069   21.2808 O   0  0  0  0  0  0  0  0  0  0  0  0
   21.9914   23.1254   16.7112 C   0  0  0  0  0  0  0  0  0  0  0  0
   24.9062   23.8834   18.2502 C   0  0  0  0  0  0  0  0  0  0  0  0
   20.9912   24.4710   22.5247 N   0  0  0  0  0  0  0  0  0  0  0  0
   24.0918   26.2834   17.8639 C   0  0  0  0  0  0  0  0  0  0  0  0
   20.1200   23.9504   21.5715 C   0  0  0  0  0  0  0  0  0  0  0  0
   23.9570   23.6734   19.4176 N   0  0  0  0  0  0  0  0  0  0  0  0
   22.8313   24.2208   16.6241 C   0  0  0  0  0  0  0  0  0  0  0  0
   26.5440   21.7965   20.3302 C   0  0  0  0  0  0  0  0  0  0  0  0
   25.5168   22.8070   17.3995 C   0  0  0  0  0  0  0  0  0  0  0  0
   26.5728   20.6823   19.2746 C   0  0  0  0  0  0  0  0  0  0  0  0
   20.4478   18.2375   20.6076 O   0  0  0  0  0  0  0  0  0  0  0  0
   21.1493   20.3859   19.6833 N   0  0  0  0  0  0  0  0  0  0  0  0
   19.6854   22.2697   19.8558 C   0  0  0  0  0  0  0  0  0  0  0  0
   22.0253   23.3367   20.4080 C   0  0  0  0  0  0  0  0  0  0  0  0
   22.8751   22.8650   19.3832 C   0  0  0  0  0  0  0  0  0  0  0  0
   24.5790   19.7199   20.3265 C   0  0  0  0  0  0  0  0  0  0  0  0
   22.8263   24.1915   21.2313 C   0  0  0  0  0  0  0  0  0  0  0  0
   23.6264   18.6512   20.6013 C   0  0  0  0  0  0  0  0  0  0  0  0
  1 17  1  0
  1 28  1  0
  2 15  1  0
  2 18  1  0
  3 12  1  0
  4 13  1  0
  4 15  1  0
  5 21  1  0
  5 27  1  0
  6  8  1  0
  6 29  1  0
  7 16  1  0
  7 24  1  0
  7 25  2  0
  8 22  2  0
  8 23  1  0
  9 23  1  0
  9 24  1  0
 10 14  2  0
 10 28  1  0
 11 16  2  0
 12 18  1  0
 13 17  1  0
 13 20  1  0
 14 16  1  0
 17 26  1  0
 19 21  1  0
 25 26  1  0
 25 28  1  0
 27 29  1  0
M  END
$$$$
