
     RDKit          3D

 24 26  0  0  0  0  0  0  0  0999 V2000
   22.6771   21.7379   19.9852 C   0  0  0  0  0  0  0  0  0  0  0  0
   26.0694   22.6921   17.1258 C   0  0  0  0  0  0  0  0  0  0  0  0
   21.7441   23.5316   21.4498 C   0  0  0  0  0  0  0  0  0  0  0  0
   22.4829   22.7925   17.2330 C   0  0  0  0  0  0  0  0  0  0  0  0
   24.0404   19.6399   21.4754 C   0  0  0  0  0  0  0  0  0  0  0  0
   23.1938   22.3385   18.5700 C   0  0  0  0  0  0  0  0  0  0  0  0
   21.7957   20.8741   21.2173 C   0  0  0  0  0  0  0  0  0  0  0  0
   22.9853   22.9551   20.9732 C   0  0  0  0  0  0  0  0  0  0  0  0
   21.8766   18.6988   20.5566 C   0  0  0  0  0  0  0  0  0  0  0  0
   22.4978   19.6150   21.5131 C   0  0  0  0  0  0  0  0  0  0  0  0
   21.4595   20.9110   19.8389 C   0  0  0  0  0  0  0  0  0  0  0  0
   24.2268   25.0585   21.2286 C   0  0  0  0  0  0  0  0  0  0  0  0
   25.6823   22.5464   18.6015 C   0  0  0  0  0  0  0  0  0  0  0  0
   20.3682   21.5856   19.0056 C   0  0  0  0  0  0  0  0  0  0  0  0
   23.0196   25.4417   22.0476 C   0  0  0  0  0  0  0  0  0  0  0  0
   20.2217   23.2792   21.4335 C   0  0  0  0  0  0  0  0  0  0  0  0
   22.6559   22.9654   22.3362 C   0  0  0  0  0  0  0  0  0  0  0  0
   24.0534   23.8429   20.3459 C   0  0  0  0  0  0  0  0  0  0  0  0
   24.3653   23.3878   18.8671 C   0  0  0  0  0  0  0  0  0  0  0  0
   24.4923   24.6404   17.9137 C   0  0  0  0  0  0  0  0  0  0  0  0
   23.7794   25.8768   18.2997 C   0  0  0  0  0  0  0  0  0  0  0  0
   23.1910   26.3928   17.2184 O   0  0  0  0  0  0  0  0  0  0  0  0
   21.2428   19.4917   19.4694 O   0  0  0  0  0  0  0  0  0  0  0  0
   21.8030   24.9900   21.3713 O   0  0  0  0  0  0  0  0  0  0  0  0
  1  6  1  0
  1  8  1  0
  1 11  1  0
  2 13  1  0
  3 16  1  0
  3 17  1  0
  3 24  1  0
  4  6  1  0
  5 10  1  0
  6 19  1  0
  7 10  1  0
  7 11  1  0
  8 17  1  0
  8 18  1  0
  9 10  1  0
  9 23  1  0
 11 14  1  0
 11 23  1  0
 12 15  1  0
 12 18  1  0
 13 19  1  0
 15 24  1  0
 18 19  1  0
 19 20  1  0
 20 21  1  0
 21 22  1  0
M  END
$$$$
