
     RDKit          3D

 19 20  0  0  0  0  0  0  0  0999 V2000
   24.8642   22.7157   17.0203 C   0  0  0  0  0  0  0  0  0  0  0  0
   19.9351   22.4123   19.8331 C   0  0  0  0  0  0  0  0  0  0  0  0
   21.6061   18.8798   20.2799 C   0  0  0  0  0  0  0  0  0  0  0  0
   20.8497   18.0790   20.9923 O   0  0  0  0  0  0  0  0  0  0  0  0
   21.3581   21.6945   19.4780 C   0  0  0  0  0  0  0  0  0  0  0  0
   18.8779   24.3576   21.3290 O   0  0  0  0  0  0  0  0  0  0  0  0
   22.6664   22.1902   20.1668 C   0  0  0  0  0  0  0  0  0  0  0  0
   25.0633   24.1352   21.3366 Cl  0  0  0  0  0  0  0  0  0  0  0  0
   21.0261   23.3423   21.8857 C   0  0  0  0  0  0  0  0  0  0  0  0
   24.8943   23.4832   19.6769 C   0  0  0  0  0  0  0  0  0  0  0  0
   25.9231   23.8656   18.8524 C   0  0  0  0  0  0  0  0  0  0  0  0
   23.8204   22.6677   19.1722 C   0  0  0  0  0  0  0  0  0  0  0  0
   23.8379   22.3391   17.8603 N   0  0  0  0  0  0  0  0  0  0  0  0
   19.8727   23.4441   20.9112 C   0  0  0  0  0  0  0  0  0  0  0  0
   21.0194   20.1331   19.7176 C   0  0  0  0  0  0  0  0  0  0  0  0
   23.2230   21.0737   20.9603 O   0  0  0  0  0  0  0  0  0  0  0  0
   22.7339   18.5305   19.8163 O   0  0  0  0  0  0  0  0  0  0  0  0
   22.3227   23.3910   21.1223 C   0  0  0  0  0  0  0  0  0  0  0  0
   25.9259   23.4757   17.4910 C   0  0  0  0  0  0  0  0  0  0  0  0
  1 13  1  0
  1 19  2  0
  2  5  1  0
  2 14  1  0
  3  4  2  0
  3 15  1  0
  3 17  1  0
  5  7  1  0
  5 15  1  0
  6 14  1  0
  7 12  1  0
  7 16  1  0
  7 18  1  0
  8 10  1  0
  9 14  1  0
  9 18  1  0
 10 11  2  0
 10 12  1  0
 11 19  1  0
 12 13  2  0
M  END
$$$$
