
     RDKit          3D

 23 24  0  0  0  0  0  0  0  0999 V2000
   22.5736   21.7037   21.9827 C   0  0  0  0  0  0  0  0  0  0  0  0
   26.7088   24.2117   17.2550 C   0  0  0  0  0  0  0  0  0  0  0  0
   18.6542   24.5349   21.1921 O   0  0  0  0  0  0  0  0  0  0  0  0
   22.7036   22.6446   19.2639 C   0  0  0  0  0  0  0  0  0  0  0  0
   21.7679   23.9122   17.0846 C   0  0  0  0  0  0  0  0  0  0  0  0
   24.2353   21.0239   20.4414 C   0  0  0  0  0  0  0  0  0  0  0  0
   23.1401   20.4621   22.5974 C   0  0  0  0  0  0  0  0  0  0  0  0
   22.6904   19.1437   20.5450 C   0  0  0  0  0  0  0  0  0  0  0  0
   23.5277   22.3709   16.8092 C   0  0  0  0  0  0  0  0  0  0  0  0
   19.9288   24.1022   21.4368 C   0  0  0  0  0  0  0  0  0  0  0  0
   20.5311   23.1072   20.7383 C   0  0  0  0  0  0  0  0  0  0  0  0
   24.6346   25.2840   17.6253 O   0  0  0  0  0  0  0  0  0  0  0  0
   27.2274   22.9268   17.4498 C   0  0  0  0  0  0  0  0  0  0  0  0
   23.8827   19.7404   21.3875 C   0  0  0  0  0  0  0  0  0  0  0  0
   21.8783   23.2934   20.1822 C   0  0  0  0  0  0  0  0  0  0  0  0
   19.6079   22.3002   19.9259 C   0  0  0  0  0  0  0  0  0  0  0  0
   24.7781   22.9218   16.7697 C   0  0  0  0  0  0  0  0  0  0  0  0
   22.5185   22.7472   17.8294 C   0  0  0  0  0  0  0  0  0  0  0  0
   22.4988   22.8538   22.9291 C   0  0  0  0  0  0  0  0  0  0  0  0
   22.7332   21.6514   20.4419 C   0  0  0  0  0  0  0  0  0  0  0  0
   21.9040   20.3698   20.0190 C   0  0  0  0  0  0  0  0  0  0  0  0
   27.3260   25.2996   17.3187 O   0  0  0  0  0  0  0  0  0  0  0  0
   25.2514   24.2202   17.1914 C   0  0  0  0  0  0  0  0  0  0  0  0
  1  7  1  0
  1 19  1  0
  1 20  1  0
  2 13  1  0
  2 22  2  0
  2 23  1  0
  3 10  1  0
  4 15  1  0
  4 18  1  0
  4 20  1  0
  5 18  1  0
  6 14  1  0
  6 20  1  0
  7 14  1  0
  8 14  1  0
  8 21  1  0
  9 17  1  0
  9 18  1  0
 10 11  1  0
 11 15  1  0
 11 16  1  0
 12 23  1  0
 17 23  2  3
 20 21  1  0
M  END
$$$$
