
     RDKit          3D

 30 32  0  0  0  0  0  0  0  0999 V2000
   19.4946   23.5741   22.2565 O   0  0  0  0  0  0  0  0  0  0  0  0
   21.8487   18.5227   20.5010 N   0  0  0  0  0  0  0  0  0  0  0  0
   22.6812   22.1067   20.8058 C   0  0  0  0  0  0  0  0  0  0  0  0
   20.3522   21.6376   19.2588 C   0  0  0  0  0  0  0  0  0  0  0  0
   22.4262   25.4397   16.5146 C   0  0  0  0  0  0  0  0  0  0  0  0
   23.5433   24.3986   18.2960 C   0  0  0  0  0  0  0  0  0  0  0  0
   23.9574   27.1017   20.0659 C   0  0  0  0  0  0  0  0  0  0  0  0
   24.0104   24.6387   19.7292 C   0  0  0  0  0  0  0  0  0  0  0  0
   24.6068   20.7154   20.8665 C   0  0  0  0  0  0  0  0  0  0  0  0
   25.9273   20.1691   21.1035 C   0  0  0  0  0  0  0  0  0  0  0  0
   21.6855   24.3038   21.8838 C   0  0  0  0  0  0  0  0  0  0  0  0
   22.5094   19.6550   20.4754 C   0  0  0  0  0  0  0  0  0  0  0  0
   24.6537   18.5888   19.8132 C   0  0  0  0  0  0  0  0  0  0  0  0
   24.2172   26.6251   17.7135 O   0  0  0  0  0  0  0  0  0  0  0  0
   22.3794   23.0852   16.6491 C   0  0  0  0  0  0  0  0  0  0  0  0
   20.6404   23.8162   24.0483 O   0  0  0  0  0  0  0  0  0  0  0  0
   21.8971   24.2313   16.0703 C   0  0  0  0  0  0  0  0  0  0  0  0
   21.9019   23.4060   20.6558 C   0  0  0  0  0  0  0  0  0  0  0  0
   23.3846   25.8061   20.3846 N   0  0  0  0  0  0  0  0  0  0  0  0
   24.0539   21.9944   20.7739 O   0  0  0  0  0  0  0  0  0  0  0  0
   22.0548   20.8437   21.1557 C   0  0  0  0  0  0  0  0  0  0  0  0
   20.6307   23.7412   22.7316 C   0  0  0  0  0  0  0  0  0  0  0  0
   20.6034   18.2375   20.9246 O   0  0  0  0  0  0  0  0  0  0  0  0
   25.9361   18.8581   20.5127 C   0  0  0  0  0  0  0  0  0  0  0  0
   24.9934   26.9392   18.9260 C   0  0  0  0  0  0  0  0  0  0  0  0
   23.2356   23.1723   17.7277 C   0  0  0  0  0  0  0  0  0  0  0  0
   23.3959   25.5359   17.4842 C   0  0  0  0  0  0  0  0  0  0  0  0
   20.5486   23.0278   20.0366 C   0  0  0  0  0  0  0  0  0  0  0  0
   23.8636   19.7456   20.0022 C   0  0  0  0  0  0  0  0  0  0  0  0
   22.0719   25.5603   22.3792 O   0  0  0  0  0  0  0  0  0  0  0  0
  1 22  2  0
  2 12  2  3
  2 23  1  0
  3 18  1  0
  3 20  1  0
  3 21  1  0
  4 28  1  0
  5 17  1  0
  5 27  1  0
  6  8  1  0
  6 26  1  0
  6 27  1  0
  7 19  1  0
  7 25  1  0
  8 19  1  0
  9 10  1  0
  9 20  1  0
  9 29  1  0
 10 24  1  0
 11 18  1  0
 11 22  1  0
 11 30  1  0
 12 21  1  0
 12 29  1  0
 13 24  1  0
 13 29  1  0
 14 25  1  0
 14 27  1  0
 15 17  2  0
 15 26  1  0
 16 22  1  0
 18 28  1  0
M  END
$$$$
