
     RDKit          3D

 65 69  0  0  0  0  0  0  0  0999 V2000
    3.8658   -2.5078    4.9904 C   0  0  0  0  0  0  0  0  0  0  0  0
    1.2862    0.2743   -0.5270 C   0  0  0  0  0  0  0  0  0  0  0  0
    7.2821    1.8895    5.1472 C   0  0  0  0  0  0  0  0  0  0  0  0
    5.0235    4.3248    1.9922 O   0  0  0  0  0  0  0  0  0  0  0  0
    0.4278    1.5114   -0.7998 C   0  0  0  0  0  0  0  0  0  0  0  0
    4.0569   -3.8441    4.4222 C   0  0  0  0  0  0  0  0  0  0  0  0
    3.7229   -4.8649    5.1934 O   0  0  0  0  0  0  0  0  0  0  0  0
    5.1774   -2.4774    7.3619 C   0  0  0  0  0  0  0  0  0  0  0  0
    9.0574   -1.8333    1.9702 N   0  0  0  0  0  0  0  0  0  0  0  0
    2.6737    0.6441   -0.6340 O   0  0  0  0  0  0  0  0  0  0  0  0
    8.6689   -1.9889    6.5324 C   0  0  0  0  0  0  0  0  0  0  0  0
    5.3761   -4.0961    3.8348 C   0  0  0  0  0  0  0  0  0  0  0  0
    5.5805    3.3515    4.0455 O   0  0  0  0  0  0  0  0  0  0  0  0
    9.2209    0.7519    2.1349 C   0  0  0  0  0  0  0  0  0  0  0  0
    5.7528    0.3636    7.3839 C   0  0  0  0  0  0  0  0  0  0  0  0
    3.3464    2.6601    1.1962 C   0  0  0  0  0  0  0  0  0  0  0  0
   -0.9678    1.3455   -0.5745 O   0  0  0  0  0  0  0  0  0  0  0  0
    1.0592   -0.3551    0.7247 O   0  0  0  0  0  0  0  0  0  0  0  0
    9.8272   -2.2840   -0.2424 C   0  0  0  0  0  0  0  0  0  0  0  0
    9.7064   -0.6451    2.5083 C   0  0  0  0  0  0  0  0  0  0  0  0
    3.4574    0.3288    0.4278 C   0  0  0  0  0  0  0  0  0  0  0  0
    2.9387    4.1156   -0.5755 O   0  0  0  0  0  0  0  0  0  0  0  0
    0.8476   -2.6372    3.1494 O   0  0  0  0  0  0  0  0  0  0  0  0
    3.0816   -1.8924    1.4466 C   0  0  0  0  0  0  0  0  0  0  0  0
    3.9526    1.3922    1.3270 C   0  0  0  0  0  0  0  0  0  0  0  0
    8.3161   -2.9554    4.2784 N   0  0  0  0  0  0  0  0  0  0  0  0
    6.6313    1.1137    6.1822 O   0  0  0  0  0  0  0  0  0  0  0  0
    6.5919   -4.5380    4.6419 C   0  0  0  0  0  0  0  0  0  0  0  0
    6.3034    0.6441    8.9040 C   0  0  0  0  0  0  0  0  0  0  0  0
    9.3350    2.7479    3.4216 C   0  0  0  0  0  0  0  0  0  0  0  0
    5.5944    4.5364    3.2569 C   0  0  0  0  0  0  0  0  0  0  0  0
    6.8815   -3.8125    5.9780 C   0  0  0  0  0  0  0  0  0  0  0  0
    7.7476   -4.1347    3.7608 C   0  0  0  0  0  0  0  0  0  0  0  0
    1.0073    2.7621   -0.1358 C   0  0  0  0  0  0  0  0  0  0  0  0
    3.7227   -2.9175    2.1441 O   0  0  0  0  0  0  0  0  0  0  0  0
    7.7896   -4.7072    6.6419 O   0  0  0  0  0  0  0  0  0  0  0  0
    9.6328   -2.7811    1.1209 C   0  0  0  0  0  0  0  0  0  0  0  0
    7.7456   -2.5982    5.5628 C   0  0  0  0  0  0  0  0  0  0  0  0
    1.6441   -3.6377    2.6079 C   0  0  0  0  0  0  0  0  0  0  0  0
    9.9898    1.8927    2.3940 O   0  0  0  0  0  0  0  0  0  0  0  0
    4.0536   -2.7708    8.3359 C   0  0  0  0  0  0  0  0  0  0  0  0
    0.2599    3.9189   -0.3034 O   0  0  0  0  0  0  0  0  0  0  0  0
   10.2945   -4.0837    1.5255 C   0  0  0  0  0  0  0  0  0  0  0  0
    8.7193   -0.4427    6.7329 O   0  0  0  0  0  0  0  0  0  0  0  0
    9.0681    0.9847    6.8661 C   0  0  0  0  0  0  0  0  0  0  0  0
    1.7015   -1.6549    0.9545 C   0  0  0  0  0  0  0  0  0  0  0  0
    4.3982   -2.0510    9.5946 C   0  0  0  0  0  0  0  0  0  0  0  0
    5.4171   -1.1588    7.1848 N   0  0  0  0  0  0  0  0  0  0  0  0
   -1.7745    2.4058   -1.2869 O   0  0  0  0  0  0  0  0  0  0  0  0
    9.3824   -0.5359   -1.9504 C   0  0  0  0  0  0  0  0  0  0  0  0
    8.9505   -1.1650   -0.6391 C   0  0  0  0  0  0  0  0  0  0  0  0
    5.7235   -3.5518    6.7571 O   0  0  0  0  0  0  0  0  0  0  0  0
    2.4530    2.9905    0.0496 C   0  0  0  0  0  0  0  0  0  0  0  0
    5.9469    5.6180    3.7851 O   0  0  0  0  0  0  0  0  0  0  0  0
    4.3949    1.1457    7.2573 O   0  0  0  0  0  0  0  0  0  0  0  0
    8.0782    0.9740    1.6087 O   0  0  0  0  0  0  0  0  0  0  0  0
    3.7586    3.7929    2.0709 C   0  0  0  0  0  0  0  0  0  0  0  0
    3.9570   -1.0503    0.6109 C   0  0  0  0  0  0  0  0  0  0  0  0
    5.2695   -1.3607    0.6449 O   0  0  0  0  0  0  0  0  0  0  0  0
    3.0586   -3.7212    3.1637 C   0  0  0  0  0  0  0  0  0  0  0  0
    7.6466   -4.4745    2.4724 O   0  0  0  0  0  0  0  0  0  0  0  0
    9.6274    1.6413    5.6165 C   0  0  0  0  0  0  0  0  0  0  0  0
    8.6227    1.8431    4.4644 C   0  0  0  0  0  0  0  0  0  0  0  0
    6.6207    3.2938    5.0348 C   0  0  0  0  0  0  0  0  0  0  0  0
    8.8711    1.7664    7.9018 O   0  0  0  0  0  0  0  0  0  0  0  0
  1  6  1  0
  2  5  1  0
  2 10  1  0
  2 18  1  0
  3 27  1  0
  3 63  1  0
  3 64  1  0
  4 31  1  0
  4 57  1  0
  5 17  1  0
  5 34  1  0
  6  7  1  0
  6 12  1  0
  6 60  1  0
  8 41  1  0
  8 48  1  0
  8 52  1  0
  9 20  1  0
  9 37  1  0
 10 21  1  0
 11 38  1  0
 11 44  1  0
 12 28  1  0
 13 31  1  0
 13 64  1  0
 14 20  1  0
 14 40  1  0
 14 56  2  0
 15 27  1  0
 15 29  1  0
 15 48  1  0
 15 55  1  0
 16 25  1  0
 16 53  1  0
 16 57  1  0
 17 49  1  0
 18 46  1  0
 19 37  1  0
 19 51  1  0
 21 25  2  3
 21 58  1  0
 22 53  1  0
 23 39  1  0
 24 35  1  0
 24 46  1  0
 24 58  1  0
 26 33  1  0
 26 38  1  0
 28 32  1  0
 28 33  1  0
 30 40  1  0
 30 63  1  0
 31 54  2  0
 32 36  1  0
 32 38  1  0
 32 52  1  0
 33 61  2  0
 34 42  1  0
 34 53  1  0
 35 60  1  0
 37 43  1  0
 39 60  1  0
 41 47  1  0
 44 45  1  0
 45 62  1  0
 45 65  2  0
 50 51  1  0
 58 59  1  0
 62 63  1  0
M  END
$$$$
