
     RDKit          3D

 27 28  0  0  0  0  0  0  0  0999 V2000
    3.6975    2.0978    0.9910 C   0  0  0  0  0  0  0  0  0  0  0  0
    8.5002   -1.5250    1.8220 C   0  0  0  0  0  0  0  0  0  0  0  0
    5.5972    0.6915    4.0072 C   0  0  0  0  0  0  0  0  0  0  0  0
    9.0280   -0.2890    1.1397 C   0  0  0  0  0  0  0  0  0  0  0  0
   -0.0694    1.8902   -0.8261 O   0  0  0  0  0  0  0  0  0  0  0  0
    7.0136   -1.6408    2.2446 C   0  0  0  0  0  0  0  0  0  0  0  0
    4.8250    2.9751    4.7906 C   0  0  0  0  0  0  0  0  0  0  0  0
    9.0760   -2.2198   -0.4699 C   0  0  0  0  0  0  0  0  0  0  0  0
    2.9692    3.2627    0.7432 C   0  0  0  0  0  0  0  0  0  0  0  0
    1.7347    3.1809    0.0907 C   0  0  0  0  0  0  0  0  0  0  0  0
    3.2332    0.9075    0.5222 C   0  0  0  0  0  0  0  0  0  0  0  0
   10.9358   -0.5441   -0.4254 C   0  0  0  0  0  0  0  0  0  0  0  0
    5.7417   -3.1975    4.0170 C   0  0  0  0  0  0  0  0  0  0  0  0
    1.9197    0.8229    0.0916 N   0  0  0  0  0  0  0  0  0  0  0  0
    8.8921   -2.7998    0.9777 C   0  0  0  0  0  0  0  0  0  0  0  0
    4.7401   -1.2581    0.8931 C   0  0  0  0  0  0  0  0  0  0  0  0
    3.3301   -1.8622    2.8242 O   0  0  0  0  0  0  0  0  0  0  0  0
    6.6140    1.5094    3.1248 C   0  0  0  0  0  0  0  0  0  0  0  0
    4.5160   -1.7403    2.2853 C   0  0  0  0  0  0  0  0  0  0  0  0
    5.7690   -1.9603    3.1027 C   0  0  0  0  0  0  0  0  0  0  0  0
    1.3933   -0.4332   -0.0463 O   0  0  0  0  0  0  0  0  0  0  0  0
    7.1343    2.8151    3.7845 C   0  0  0  0  0  0  0  0  0  0  0  0
    9.4429   -0.6933   -0.2784 C   0  0  0  0  0  0  0  0  0  0  0  0
    1.1751    1.9608   -0.2272 C   0  0  0  0  0  0  0  0  0  0  0  0
    5.8946    3.7465    3.9573 C   0  0  0  0  0  0  0  0  0  0  0  0
    4.1596   -0.2062    0.2318 C   0  0  0  0  0  0  0  0  0  0  0  0
    5.2871    1.5567    5.2771 C   0  0  0  0  0  0  0  0  0  0  0  0
  1  9  2  0
  1 11  1  0
  2  4  1  0
  2  6  1  0
  2 15  1  0
  3 18  1  0
  3 27  1  0
  4 23  1  0
  5 24  2  0
  6 20  1  0
  7 25  1  0
  7 27  1  0
  8 15  1  0
  8 23  1  0
  9 10  1  0
 10 24  1  0
 11 14  1  0
 11 26  1  0
 12 23  1  0
 13 20  1  0
 14 21  1  0
 14 24  1  0
 16 19  1  0
 16 26  2  3
 17 19  1  0
 18 22  1  0
 19 20  1  0
 22 25  1  0
M  END
$$$$
