
     RDKit          3D

 28 29  0  0  0  0  0  0  0  0999 V2000
    4.5238    4.2517    2.8575 C   0  0  0  0  0  0  0  0  0  0  0  0
    1.0829    2.7397   -0.5218 N   0  0  0  0  0  0  0  0  0  0  0  0
    6.8590   -2.2322    2.0687 C   0  0  0  0  0  0  0  0  0  0  0  0
    2.9654   -2.3530    4.3359 O   0  0  0  0  0  0  0  0  0  0  0  0
    0.6132   -2.6097    3.0138 O   0  0  0  0  0  0  0  0  0  0  0  0
    3.6398    0.8983    1.1833 N   0  0  0  0  0  0  0  0  0  0  0  0
    4.5553   -1.4226    1.3440 C   0  0  0  0  0  0  0  0  0  0  0  0
    7.7141   -1.0598    0.4282 C   0  0  0  0  0  0  0  0  0  0  0  0
    5.2553    4.9567    3.7615 O   0  0  0  0  0  0  0  0  0  0  0  0
    2.9945   -2.4984    3.0426 C   0  0  0  0  0  0  0  0  0  0  0  0
    6.0277   -1.3344    1.0395 N   0  0  0  0  0  0  0  0  0  0  0  0
    2.4722    2.8068    0.0216 O   0  0  0  0  0  0  0  0  0  0  0  0
    1.7960   -2.9747    2.3092 C   0  0  0  0  0  0  0  0  0  0  0  0
    2.6632    1.5284    0.5010 C   0  0  0  0  0  0  0  0  0  0  0  0
    9.1205   -3.0625    0.9895 C   0  0  0  0  0  0  0  0  0  0  0  0
    4.2735   -2.5200    2.3509 C   0  0  0  0  0  0  0  0  0  0  0  0
    4.5125    1.7081    2.0413 C   0  0  0  0  0  0  0  0  0  0  0  0
    0.5131    1.4801   -0.3069 C   0  0  0  0  0  0  0  0  0  0  0  0
    8.3009   -1.8836    1.6320 C   0  0  0  0  0  0  0  0  0  0  0  0
    4.9473    2.9431    2.3235 C   0  0  0  0  0  0  0  0  0  0  0  0
   -0.6959    1.1628   -0.4956 O   0  0  0  0  0  0  0  0  0  0  0  0
    2.0671   -0.6956    0.6588 C   0  0  0  0  0  0  0  0  0  0  0  0
    3.4065   -0.5159    1.1027 C   0  0  0  0  0  0  0  0  0  0  0  0
    7.3353    2.9008    3.5084 C   0  0  0  0  0  0  0  0  0  0  0  0
    6.9802    2.6380    4.7209 O   0  0  0  0  0  0  0  0  0  0  0  0
    8.5125    3.2554    3.2020 O   0  0  0  0  0  0  0  0  0  0  0  0
    1.5481    0.6194    0.2575 C   0  0  0  0  0  0  0  0  0  0  0  0
    6.3699    2.8945    2.4551 N   0  0  0  0  0  0  0  0  0  0  0  0
  1  9  1  0
  1 20  1  0
  2 12  1  0
  2 18  1  0
  3 11  1  0
  3 19  1  0
  4 10  1  0
  5 13  1  0
  6 14  1  0
  6 17  1  0
  6 23  1  0
  7 11  1  0
  7 16  2  3
  7 23  1  0
  8 19  1  0
 10 13  1  0
 10 16  1  0
 12 14  1  0
 14 27  2  0
 15 19  1  0
 17 20  1  0
 18 21  2  0
 18 27  1  0
 20 28  1  0
 22 23  1  0
 22 27  1  0
 24 25  2  0
 24 26  1  0
 24 28  1  0
M  END
$$$$
