
     RDKit          3D

 25 27  0  0  0  0  0  0  0  0999 V2000
    3.3976    3.5948    0.6174 O   0  0  0  0  0  0  0  0  0  0  0  0
    5.4189   -0.8865    1.9254 N   0  0  0  0  0  0  0  0  0  0  0  0
    2.2412    1.6568   -0.0088 C   0  0  0  0  0  0  0  0  0  0  0  0
    6.9253    3.0477    4.8020 O   0  0  0  0  0  0  0  0  0  0  0  0
    6.4641   -1.8276    2.0382 C   0  0  0  0  0  0  0  0  0  0  0  0
    2.5505    3.0297   -0.0113 C   0  0  0  0  0  0  0  0  0  0  0  0
    6.4699   -2.8432    2.9675 C   0  0  0  0  0  0  0  0  0  0  0  0
    4.0521   -0.2463    0.0869 C   0  0  0  0  0  0  0  0  0  0  0  0
    4.9639    0.4060    2.4653 C   0  0  0  0  0  0  0  0  0  0  0  0
    8.2862   -3.0211    1.6502 N   0  0  0  0  0  0  0  0  0  0  0  0
    0.8130    1.5769   -0.2767 C   0  0  0  0  0  0  0  0  0  0  0  0
    9.4986   -3.5741    1.0083 C   0  0  0  0  0  0  0  0  0  0  0  0
    5.9908    1.0713    3.1870 C   0  0  0  0  0  0  0  0  0  0  0  0
    7.5567   -1.8536    1.2285 N   0  0  0  0  0  0  0  0  0  0  0  0
    4.3039   -1.3544    1.0618 C   0  0  0  0  0  0  0  0  0  0  0  0
    2.6786    0.3437    0.1051 C   0  0  0  0  0  0  0  0  0  0  0  0
    6.6028    3.4613    2.2748 O   0  0  0  0  0  0  0  0  0  0  0  0
   -0.8455    3.0708   -1.0740 O   0  0  0  0  0  0  0  0  0  0  0  0
    6.0239    2.8655    3.5365 P   0  0  0  0  0  0  0  0  0  0  0  0
    0.3059    2.8149   -0.6391 C   0  0  0  0  0  0  0  0  0  0  0  0
    4.6051    3.5771    3.8541 O   0  0  0  0  0  0  0  0  0  0  0  0
    1.3910    3.7377   -0.5876 N   0  0  0  0  0  0  0  0  0  0  0  0
    7.6967   -3.6022    2.7087 C   0  0  0  0  0  0  0  0  0  0  0  0
    0.4525    0.3244   -0.1291 N   0  0  0  0  0  0  0  0  0  0  0  0
    1.5879   -0.4933    0.1499 O   0  0  0  0  0  0  0  0  0  0  0  0
  1  6  2  0
  2  5  1  0
  2  9  1  0
  2 15  1  0
  3  6  1  0
  3 11  1  0
  3 16  2  0
  4 19  1  0
  5  7  1  0
  5 14  2  0
  6 22  1  0
  7 23  1  0
  8 15  1  0
  8 16  1  0
  9 13  1  0
 10 12  1  0
 10 14  1  0
 10 23  1  0
 11 20  1  0
 11 24  2  0
 13 19  1  0
 16 25  1  0
 17 19  1  0
 18 20  2  0
 19 21  1  0
 20 22  1  0
 24 25  1  0
M  END
$$$$
