
     RDKit          3D

 25 27  0  0  0  0  0  0  0  0999 V2000
    4.8276    2.6996    3.0223 C   0  0  0  0  0  0  0  0  0  0  0  0
    1.4443    1.2767   -0.1368 C   0  0  0  0  0  0  0  0  0  0  0  0
    6.9712   -2.9751    2.4503 C   0  0  0  0  0  0  0  0  0  0  0  0
    9.1029   -3.1041    0.4228 C   0  0  0  0  0  0  0  0  0  0  0  0
    4.1557    2.0366    1.8939 C   0  0  0  0  0  0  0  0  0  0  0  0
    5.8732   -1.2485    1.1209 C   0  0  0  0  0  0  0  0  0  0  0  0
    0.4452    1.5329   -1.0961 O   0  0  0  0  0  0  0  0  0  0  0  0
    2.5742   -1.0037    0.8418 C   0  0  0  0  0  0  0  0  0  0  0  0
    1.5391    3.7326   -0.2399 N   0  0  0  0  0  0  0  0  0  0  0  0
    7.4393    2.7275    3.2446 P   0  0  0  0  0  0  0  0  0  0  0  0
    8.3362   -1.7312    0.5087 C   0  0  0  0  0  0  0  0  0  0  0  0
    3.2362   -2.6503    2.4663 C   0  0  0  0  0  0  0  0  0  0  0  0
    4.5552   -1.8337    1.9755 C   0  0  0  0  0  0  0  0  0  0  0  0
    5.4113   -2.9650    2.7639 C   0  0  0  0  0  0  0  0  0  0  0  0
    2.0096   -0.0911   -0.1953 C   0  0  0  0  0  0  0  0  0  0  0  0
    2.3351    2.5015    0.1145 C   0  0  0  0  0  0  0  0  0  0  0  0
    7.2606   -1.7453    1.5836 C   0  0  0  0  0  0  0  0  0  0  0  0
    7.1476    2.0211    4.5770 O   0  0  0  0  0  0  0  0  0  0  0  0
    3.6541   -0.4749    1.7607 C   0  0  0  0  0  0  0  0  0  0  0  0
    8.4249    3.8822    3.4321 O   0  0  0  0  0  0  0  0  0  0  0  0
    7.8522    1.7890    2.0629 O   0  0  0  0  0  0  0  0  0  0  0  0
    6.0471    3.4749    2.7261 O   0  0  0  0  0  0  0  0  0  0  0  0
    4.1439    0.7955    1.3051 O   0  0  0  0  0  0  0  0  0  0  0  0
    3.4120    3.0619    1.1047 C   0  0  0  0  0  0  0  0  0  0  0  0
    2.1359   -2.1912    1.5127 O   0  0  0  0  0  0  0  0  0  0  0  0
  1  5  1  0
  1 22  1  0
  2  7  1  0
  2 15  1  0
  2 16  1  0
  3 14  1  0
  3 17  1  0
  4 11  1  0
  5 23  1  0
  5 24  1  0
  6 13  1  0
  6 17  1  0
  8 15  1  0
  8 19  1  0
  8 25  1  0
  9 16  1  0
 10 18  1  0
 10 20  1  0
 10 21  1  0
 10 22  1  0
 11 17  1  0
 12 13  1  0
 12 25  1  0
 13 14  1  0
 13 19  1  0
 16 24  1  0
 19 23  1  0
M  END
$$$$
