
     RDKit          3D

 24 25  0  0  0  0  0  0  0  0999 V2000
    5.9525   -1.1937    1.5817 C   0  0  0  0  0  0  0  0  0  0  0  0
    6.9759   -2.2143    1.9838 C   0  0  0  0  0  0  0  0  0  0  0  0
    6.0218    3.2790    3.3615 O   0  0  0  0  0  0  0  0  0  0  0  0
   10.6684   -1.3776    1.5587 C   0  0  0  0  0  0  0  0  0  0  0  0
   -0.7724    1.4774   -0.5037 O   0  0  0  0  0  0  0  0  0  0  0  0
    9.5147   -2.2753    1.7310 C   0  0  0  0  0  0  0  0  0  0  0  0
    6.9776    0.5262    3.0690 C   0  0  0  0  0  0  0  0  0  0  0  0
    1.1936    0.2280    0.1255 C   0  0  0  0  0  0  0  0  0  0  0  0
    8.1443   -0.1771    2.5118 O   0  0  0  0  0  0  0  0  0  0  0  0
    5.6250   -0.0648    2.5529 C   0  0  0  0  0  0  0  0  0  0  0  0
    3.5536    2.0154    1.3541 C   0  0  0  0  0  0  0  0  0  0  0  0
    2.6631    0.0404   -0.0305 C   0  0  0  0  0  0  0  0  0  0  0  0
    3.5698   -0.4017    1.1145 C   0  0  0  0  0  0  0  0  0  0  0  0
    8.3194   -1.5463    2.2462 C   0  0  0  0  0  0  0  0  0  0  0  0
    7.3135    2.4021    3.2272 P   0  0  0  0  0  0  0  0  0  0  0  0
    4.8491   -0.5699    3.7526 O   0  0  0  0  0  0  0  0  0  0  0  0
    9.2145   -3.1558    0.5528 C   0  0  0  0  0  0  0  0  0  0  0  0
    0.5711    1.4293   -0.4829 C   0  0  0  0  0  0  0  0  0  0  0  0
    0.7968    3.8112   -0.3657 N   0  0  0  0  0  0  0  0  0  0  0  0
    1.3680    2.6072   -0.2785 C   0  0  0  0  0  0  0  0  0  0  0  0
    2.6522    2.5457    0.2734 N   0  0  0  0  0  0  0  0  0  0  0  0
    8.2579    2.7349    4.4633 O   0  0  0  0  0  0  0  0  0  0  0  0
    8.0701    2.6993    1.9240 O   0  0  0  0  0  0  0  0  0  0  0  0
    4.4216    0.7392    1.7711 C   0  0  0  0  0  0  0  0  0  0  0  0
  1  2  1  0
  1 10  1  0
  2 14  1  0
  3 15  1  0
  4  6  1  0
  5 18  1  0
  6 14  1  0
  6 17  1  0
  7  9  1  0
  7 10  1  0
  7 15  1  0
  8 12  1  0
  8 18  1  0
  9 14  1  0
 10 16  1  0
 10 24  1  0
 11 21  1  0
 11 24  1  0
 12 13  1  0
 13 24  1  0
 15 22  1  0
 15 23  1  0
 18 20  1  0
 19 20  2  0
 20 21  1  0
M  END
$$$$
