
     RDKit          3D

 20 22  0  0  0  0  0  0  0  0999 V2000
  -21.4199   17.8774  -29.2319 C   0  0  0  0  0  0  0  0  0  0  0  0
  -19.2434   16.5851  -28.3768 C   0  0  0  0  0  0  0  0  0  0  0  0
  -14.5216   15.3215  -27.2307 C   0  0  0  0  0  0  0  0  0  0  0  0
  -16.7934   15.8151  -28.2705 C   0  0  0  0  0  0  0  0  0  0  0  0
  -21.4405   17.3377  -30.4920 C   0  0  0  0  0  0  0  0  0  0  0  0
  -15.9166   15.1174  -27.1395 C   0  0  0  0  0  0  0  0  0  0  0  0
  -20.1039   17.0984  -30.7933 O   0  0  0  0  0  0  0  0  0  0  0  0
  -18.1914   15.2594  -27.8857 C   0  0  0  0  0  0  0  0  0  0  0  0
  -18.4943   15.3070  -30.6919 C   0  0  0  0  0  0  0  0  0  0  0  0
  -22.3886   17.7314  -27.2364 C   0  0  0  0  0  0  0  0  0  0  0  0
  -13.9318   16.6511  -27.4755 C   0  0  0  0  0  0  0  0  0  0  0  0
  -22.2872   19.8007  -28.4940 C   0  0  0  0  0  0  0  0  0  0  0  0
  -20.6433   16.1500  -27.6890 C   0  0  0  0  0  0  0  0  0  0  0  0
  -21.6053   16.9338  -28.2825 C   0  0  0  0  0  0  0  0  0  0  0  0
  -20.4478   16.6895  -26.2562 C   0  0  0  0  0  0  0  0  0  0  0  0
  -21.1285   18.2169  -26.4082 C   0  0  0  0  0  0  0  0  0  0  0  0
  -23.1237   18.8271  -27.8899 C   0  0  0  0  0  0  0  0  0  0  0  0
  -19.4975   16.2214  -29.8423 C   0  0  0  0  0  0  0  0  0  0  0  0
  -21.2228   19.2696  -29.2487 C   0  0  0  0  0  0  0  0  0  0  0  0
  -18.6708   18.0413  -28.1226 C   0  0  0  0  0  0  0  0  0  0  0  0
  1  5  1  0
  1 14  1  0
  1 19  1  0
  2  8  1  0
  2 13  1  0
  2 18  1  0
  2 20  1  0
  3  6  1  0
  3 11  1  0
  4  6  1  0
  4  8  1  0
  5  7  1  0
  7 18  1  0
  9 18  1  0
 10 14  1  0
 10 16  1  0
 10 17  1  0
 12 17  1  0
 12 19  1  0
 13 14  1  0
 13 15  1  0
 15 16  1  0
M  END
$$$$
