
     RDKit          3D

 24 24  0  0  0  0  0  0  0  0999 V2000
  -19.1227   16.3768  -30.6939 C   0  0  0  0  0  0  0  0  0  0  0  0
  -13.7396   16.5742  -27.6614 C   0  0  0  0  0  0  0  0  0  0  0  0
  -15.8288   17.4504  -27.0035 C   0  0  0  0  0  0  0  0  0  0  0  0
  -22.2402   16.9142  -30.4104 C   0  0  0  0  0  0  0  0  0  0  0  0
  -20.8394   18.8258  -31.3287 C   0  0  0  0  0  0  0  0  0  0  0  0
  -20.3206   15.9332  -27.0282 C   0  0  0  0  0  0  0  0  0  0  0  0
  -15.1833   16.2948  -27.4599 C   0  0  0  0  0  0  0  0  0  0  0  0
  -19.7255   17.6274  -29.0618 C   0  0  0  0  0  0  0  0  0  0  0  0
  -14.7412   18.4099  -26.8454 C   0  0  0  0  0  0  0  0  0  0  0  0
  -13.4807   17.7966  -27.2979 O   0  0  0  0  0  0  0  0  0  0  0  0
  -17.9218   16.7459  -28.1379 C   0  0  0  0  0  0  0  0  0  0  0  0
  -20.0233   14.6294  -32.7518 O   0  0  0  0  0  0  0  0  0  0  0  0
  -21.6793   15.7986  -26.5860 C   0  0  0  0  0  0  0  0  0  0  0  0
  -19.7423   15.8489  -32.9467 C   0  0  0  0  0  0  0  0  0  0  0  0
  -20.1759   16.5038  -31.7458 C   0  0  0  0  0  0  0  0  0  0  0  0
  -19.4485   16.8594  -26.3189 C   0  0  0  0  0  0  0  0  0  0  0  0
  -21.2206   17.2496  -31.4440 C   0  0  0  0  0  0  0  0  0  0  0  0
  -15.5323   14.8431  -26.7618 C   0  0  0  0  0  0  0  0  0  0  0  0
  -17.8035   15.3124  -28.4531 C   0  0  0  0  0  0  0  0  0  0  0  0
  -20.3910   16.0817  -28.6244 C   0  0  0  0  0  0  0  0  0  0  0  0
  -16.8675   17.2806  -25.9687 C   0  0  0  0  0  0  0  0  0  0  0  0
  -18.8793   16.6484  -33.4820 C   0  0  0  0  0  0  0  0  0  0  0  0
  -19.6519   16.5936  -29.4625 C   0  0  0  0  0  0  0  0  0  0  0  0
  -18.0832   16.9554  -26.6629 C   0  0  0  0  0  0  0  0  0  0  0  0
  1 15  1  0
  1 23  1  0
  2  7  1  0
  2 10  1  0
  3  7  1  0
  3  9  1  0
  3 21  1  0
  4 17  1  0
  5 17  1  0
  6 13  1  0
  6 16  1  0
  6 20  1  0
  7 18  1  0
  8 23  2  0
  9 10  1  0
 11 19  1  0
 11 24  1  0
 12 14  2  0
 14 15  1  0
 14 22  1  0
 15 17  1  0
 16 24  1  0
 20 23  1  0
 21 24  1  0
M  END
$$$$
