
     RDKit          3D

 32 37  0  0  0  0  0  0  0  0999 V2000
  -21.4032   15.4040  -30.7785 N   0  0  0  0  0  0  0  0  0  0  0  0
  -18.2380   18.9086  -31.1785 C   0  0  0  0  0  0  0  0  0  0  0  0
  -18.3658   17.3304  -33.3391 C   0  0  0  0  0  0  0  0  0  0  0  0
  -21.1180   17.6298  -27.9315 C   0  0  0  0  0  0  0  0  0  0  0  0
  -25.0516   14.6340  -28.3137 C   0  0  0  0  0  0  0  0  0  0  0  0
  -23.5583   14.4871  -29.1617 C   0  0  0  0  0  0  0  0  0  0  0  0
  -16.3711   17.3229  -26.8725 C   0  0  0  0  0  0  0  0  0  0  0  0
  -18.9380   19.6832  -29.0940 C   0  0  0  0  0  0  0  0  0  0  0  0
  -18.3536   16.7924  -29.1061 N   0  0  0  0  0  0  0  0  0  0  0  0
  -21.7293   15.9383  -29.5911 C   0  0  0  0  0  0  0  0  0  0  0  0
  -18.5227   17.6507  -31.9430 C   0  0  0  0  0  0  0  0  0  0  0  0
  -14.2264   16.2926  -28.1145 C   0  0  0  0  0  0  0  0  0  0  0  0
  -20.2730   15.7431  -31.4798 C   0  0  0  0  0  0  0  0  0  0  0  0
  -22.8863   15.6298  -28.9539 N   0  0  0  0  0  0  0  0  0  0  0  0
  -17.6178   21.1917  -31.4696 C   0  0  0  0  0  0  0  0  0  0  0  0
  -18.0787   21.5091  -30.3464 C   0  0  0  0  0  0  0  0  0  0  0  0
  -24.9452   16.1228  -27.5736 C   0  0  0  0  0  0  0  0  0  0  0  0
  -17.8342   19.9309  -31.7752 C   0  0  0  0  0  0  0  0  0  0  0  0
  -18.8545   18.7689  -29.9062 C   0  0  0  0  0  0  0  0  0  0  0  0
  -14.9635   17.4972  -27.4944 C   0  0  0  0  0  0  0  0  0  0  0  0
  -23.3838   16.3993  -27.9223 C   0  0  0  0  0  0  0  0  0  0  0  0
  -19.4339   17.3418  -29.7817 C   0  0  0  0  0  0  0  0  0  0  0  0
  -20.7508   16.9798  -29.0946 C   0  0  0  0  0  0  0  0  0  0  0  0
  -22.5204   17.3440  -27.3816 C   0  0  0  0  0  0  0  0  0  0  0  0
  -19.4198   16.8053  -31.0793 C   0  0  0  0  0  0  0  0  0  0  0  0
  -14.7475   14.8157  -27.4533 C   0  0  0  0  0  0  0  0  0  0  0  0
  -16.3947   14.9039  -27.6766 C   0  0  0  0  0  0  0  0  0  0  0  0
  -17.1566   15.8490  -28.9148 C   0  0  0  0  0  0  0  0  0  0  0  0
  -17.1936   18.2390  -27.1793 O   0  0  0  0  0  0  0  0  0  0  0  0
  -18.5850   21.0611  -29.2889 C   0  0  0  0  0  0  0  0  0  0  0  0
  -19.9516   14.9089  -32.5437 C   0  0  0  0  0  0  0  0  0  0  0  0
  -16.8128   16.0042  -26.5485 C   0  0  0  0  0  0  0  0  0  0  0  0
  1 10  2  0
  1 13  1  0
  2 11  1  0
  2 18  2  0
  2 19  1  0
  3 11  1  0
  4 23  2  0
  4 24  1  0
  5  6  1  0
  5 17  1  0
  6 14  1  0
  7 20  1  0
  7 29  2  0
  7 32  1  0
  8 19  2  0
  8 30  1  0
  9 22  1  0
  9 28  1  0
 10 14  1  0
 10 23  1  0
 11 25  1  0
 12 20  1  0
 12 26  1  0
 13 25  1  0
 13 31  1  0
 14 21  1  0
 15 16  1  0
 15 18  1  0
 16 30  2  0
 17 21  1  0
 19 22  1  0
 21 24  2  0
 22 23  1  0
 22 25  1  0
 26 27  1  0
 27 28  1  0
 27 32  1  0
M  END
$$$$
