
     RDKit          3D

 13 13  0  0  0  0  0  0  0  0999 V2000
   62.4616   53.4568  109.3970 C   0  0  0  0  0  0  0  0  0  0  0  0
   61.8131   51.0109  109.1071 C   0  0  0  0  0  0  0  0  0  0  0  0
   63.8647   52.8199  109.7792 C   0  0  0  0  0  0  0  0  0  0  0  0
   61.7911   52.3712  108.5745 C   0  0  0  0  0  0  0  0  0  0  0  0
   64.5645   55.1668  109.4449 C   0  0  0  0  0  0  0  0  0  0  0  0
   63.6099   51.6266  110.7121 C   0  0  0  0  0  0  0  0  0  0  0  0
   64.2380   54.1534  110.5498 C   0  0  0  0  0  0  0  0  0  0  0  0
   63.3743   54.1411  111.6981 O   0  0  0  0  0  0  0  0  0  0  0  0
   64.4465   54.8991  108.1178 O   0  0  0  0  0  0  0  0  0  0  0  0
   61.0634   50.0205  108.2676 C   0  0  0  0  0  0  0  0  0  0  0  0
   62.5847   50.6396  110.2196 C   0  0  0  0  0  0  0  0  0  0  0  0
   64.7756   56.3635  109.9623 O   0  0  0  0  0  0  0  0  0  0  0  0
   62.3368   49.4090  111.0050 C   0  0  0  0  0  0  0  0  0  0  0  0
  1  3  1  0
  1  4  1  0
  2  4  2  0
  2 10  1  0
  2 11  1  0
  3  6  1  0
  3  7  1  0
  5  7  1  0
  5  9  2  0
  5 12  1  0
  6 11  2  0
  7  8  1  0
 11 13  1  0
M  END
$$$$
