
     RDKit          3D

  9  8  0  0  0  0  0  0  0  0999 V2000
   64.2362   53.7976  109.5779 C   0  0  0  0  0  0  0  0  0  0  0  0
   63.3464   49.8636  111.1764 C   0  0  0  0  0  0  0  0  0  0  0  0
   61.6017   51.8345  107.6092 O   0  0  0  0  0  0  0  0  0  0  0  0
   61.2265   52.1205  110.7004 O   0  0  0  0  0  0  0  0  0  0  0  0
   62.8212   53.3740  109.3646 C   0  0  0  0  0  0  0  0  0  0  0  0
   61.9890   51.0908  108.8002 C   0  0  0  0  0  0  0  0  0  0  0  0
   64.5394   54.4564  110.8045 O   0  0  0  0  0  0  0  0  0  0  0  0
   63.5214   51.4370  110.7749 C   0  0  0  0  0  0  0  0  0  0  0  0
   62.4306   52.0145  109.9306 C   0  0  0  0  0  0  0  0  0  0  0  0
  1  5  1  0
  1  7  1  0
  2  8  1  0
  3  6  1  0
  4  9  1  0
  5  9  1  0
  6  9  1  0
  8  9  1  0
M  END
$$$$
