
     RDKit          3D

 25 28  0  0  0  0  0  0  0  0999 V2000
   63.3662   53.7681  108.6907 C   0  0  0  0  0  0  0  0  0  0  0  0
   63.2541   50.4872  110.7134 C   0  0  0  0  0  0  0  0  0  0  0  0
   64.3280   53.6255  107.8188 O   0  0  0  0  0  0  0  0  0  0  0  0
   62.8908   58.8619  111.9993 C   0  0  0  0  0  0  0  0  0  0  0  0
   60.7799   49.7501  108.0658 C   0  0  0  0  0  0  0  0  0  0  0  0
   63.5749   57.4936  111.8447 C   0  0  0  0  0  0  0  0  0  0  0  0
   62.9395   55.1230  109.0533 C   0  0  0  0  0  0  0  0  0  0  0  0
   62.0612   51.7612  108.6935 C   0  0  0  0  0  0  0  0  0  0  0  0
   61.4266   48.9421  110.6970 O   0  0  0  0  0  0  0  0  0  0  0  0
   63.1464   56.1527  107.9590 C   0  0  0  0  0  0  0  0  0  0  0  0
   62.7914   52.7177  109.4893 N   0  0  0  0  0  0  0  0  0  0  0  0
   61.5305   50.5062  108.9997 C   0  0  0  0  0  0  0  0  0  0  0  0
   64.2617   57.2030  108.1825 C   0  0  0  0  0  0  0  0  0  0  0  0
   63.5396   54.2951  111.2337 C   0  0  0  0  0  0  0  0  0  0  0  0
   61.7235   56.5212  107.3781 C   0  0  0  0  0  0  0  0  0  0  0  0
   64.4388   59.1674  110.0840 O   0  0  0  0  0  0  0  0  0  0  0  0
   63.1319   51.7204  111.6337 C   0  0  0  0  0  0  0  0  0  0  0  0
   61.6354   52.3017  107.5547 O   0  0  0  0  0  0  0  0  0  0  0  0
   63.3414   52.9149  110.8540 C   0  0  0  0  0  0  0  0  0  0  0  0
   64.0208   57.9624  109.4884 C   0  0  0  0  0  0  0  0  0  0  0  0
   63.9798   49.4617  111.5332 C   0  0  0  0  0  0  0  0  0  0  0  0
   63.5699   55.5635  110.3555 C   0  0  0  0  0  0  0  0  0  0  0  0
   62.1121   49.8384  110.0830 C   0  0  0  0  0  0  0  0  0  0  0  0
   63.3887   57.0529  110.4504 N   0  0  0  0  0  0  0  0  0  0  0  0
   63.5067   59.8757  110.9955 C   0  0  0  0  0  0  0  0  0  0  0  0
  1  3  2  0
  1  7  1  0
  1 11  1  0
  2 17  1  0
  2 21  1  0
  2 23  1  0
  4  6  1  0
  4 25  1  0
  5 12  1  0
  6 24  1  0
  7 10  1  0
  7 22  1  0
  8 11  1  0
  8 12  1  0
  8 18  2  0
  9 23  2  0
 10 13  1  0
 10 15  1  0
 11 19  1  0
 12 23  1  0
 13 20  1  0
 14 19  1  0
 14 22  1  0
 16 20  1  0
 16 25  1  0
 17 19  1  0
 20 24  1  0
 22 24  1  0
M  END
$$$$
