
     RDKit          3D

 11 11  0  0  0  0  0  0  0  0999 V2000
   64.0710   53.8030  108.9249 C   0  0  0  0  0  0  0  0  0  0  0  0
   64.9708   54.8932  110.9880 N   0  0  0  0  0  0  0  0  0  0  0  0
   63.4684   52.5682  109.4655 N   0  0  0  0  0  0  0  0  0  0  0  0
   61.7041   52.6884  107.9137 O   0  0  0  0  0  0  0  0  0  0  0  0
   62.3932   52.0120  108.8436 C   0  0  0  0  0  0  0  0  0  0  0  0
   63.6837   50.6819  110.9310 C   0  0  0  0  0  0  0  0  0  0  0  0
   64.0656   51.9544  110.5560 C   0  0  0  0  0  0  0  0  0  0  0  0
   64.0037   54.9682  109.8691 C   0  0  0  0  0  0  0  0  0  0  0  0
   60.8814   49.9444  108.3975 Cl  0  0  0  0  0  0  0  0  0  0  0  0
   62.0154   50.6967  109.1832 C   0  0  0  0  0  0  0  0  0  0  0  0
   62.6449   50.0620  110.2273 C   0  0  0  0  0  0  0  0  0  0  0  0
  1  3  1  0
  1  8  1  0
  2  8  1  0
  3  5  1  0
  3  7  1  0
  4  5  2  0
  5 10  1  0
  6  7  2  0
  6 11  1  0
  9 10  1  0
 10 11  2  0
M  END
$$$$
