
     RDKit          3D

 22 24  0  0  0  0  0  0  0  0999 V2000
   20.3154   23.6969   21.0153 C   0  0  0  0  0  0  0  0  0  0  0  0
   23.3242   20.5569   20.5507 C   0  0  0  0  0  0  0  0  0  0  0  0
   23.5160   22.6784   17.3439 O   0  0  0  0  0  0  0  0  0  0  0  0
   22.9573   24.1368   23.4167 O   0  0  0  0  0  0  0  0  0  0  0  0
   24.4240   20.8735   21.6186 C   0  0  0  0  0  0  0  0  0  0  0  0
   19.3349   24.3589   21.4877 O   0  0  0  0  0  0  0  0  0  0  0  0
   23.2012   19.0551   20.5633 C   0  0  0  0  0  0  0  0  0  0  0  0
   22.5959   23.2239   16.3691 C   0  0  0  0  0  0  0  0  0  0  0  0
   22.1547   21.3967   21.0365 C   0  0  0  0  0  0  0  0  0  0  0  0
   22.1189   18.4926   20.7578 O   0  0  0  0  0  0  0  0  0  0  0  0
   21.8620   22.6324   19.0598 C   0  0  0  0  0  0  0  0  0  0  0  0
   24.2389   18.4747   20.1144 O   0  0  0  0  0  0  0  0  0  0  0  0
   22.7612   22.8597   21.2117 C   0  0  0  0  0  0  0  0  0  0  0  0
   23.7417   20.9383   19.1294 C   0  0  0  0  0  0  0  0  0  0  0  0
   22.9063   21.8569   18.3043 C   0  0  0  0  0  0  0  0  0  0  0  0
   21.1407   21.6226   19.9023 C   0  0  0  0  0  0  0  0  0  0  0  0
   21.7147   23.8925   21.4344 C   0  0  0  0  0  0  0  0  0  0  0  0
   21.1972   23.7350   18.4155 C   0  0  0  0  0  0  0  0  0  0  0  0
   22.0376   24.6715   22.6662 C   0  0  0  0  0  0  0  0  0  0  0  0
   19.9180   22.3606   20.4424 C   0  0  0  0  0  0  0  0  0  0  0  0
   21.4513   25.7236   22.9125 O   0  0  0  0  0  0  0  0  0  0  0  0
   21.3452   23.7231   16.9568 C   0  0  0  0  0  0  0  0  0  0  0  0
  1  6  2  0
  1 17  1  0
  1 20  1  0
  2  5  1  0
  2  7  1  0
  2  9  1  0
  2 14  1  0
  3  8  1  0
  3 15  1  0
  4 19  2  0
  7 10  2  0
  7 12  1  0
  8 22  1  0
  9 13  1  0
  9 16  1  0
 11 15  1  0
 11 16  1  0
 11 18  1  0
 13 17  1  0
 14 15  1  0
 16 20  1  0
 17 19  1  0
 18 22  1  0
 19 21  1  0
M  END
$$$$
