
     RDKit          3D

 31 34  0  0  0  0  0  0  0  0999 V2000
   22.3164   19.6559   21.7824 C   0  0  0  0  0  0  0  0  0  0  0  0
   19.4567   22.4704   20.1025 O   0  0  0  0  0  0  0  0  0  0  0  0
   19.5558   23.3196   21.1531 C   0  0  0  0  0  0  0  0  0  0  0  0
   25.0427   23.2436   18.6906 C   0  0  0  0  0  0  0  0  0  0  0  0
   21.7556   23.6272   22.1428 C   0  0  0  0  0  0  0  0  0  0  0  0
   21.5432   18.1426   20.1659 O   0  0  0  0  0  0  0  0  0  0  0  0
   25.7120   24.5071   18.8427 C   0  0  0  0  0  0  0  0  0  0  0  0
   22.8097   27.3072   21.9280 C   0  0  0  0  0  0  0  0  0  0  0  0
   21.5063   23.8208   15.9702 C   0  0  0  0  0  0  0  0  0  0  0  0
   21.7968   24.9493   21.8352 N   0  0  0  0  0  0  0  0  0  0  0  0
   23.4088   21.7216   22.0292 N   0  0  0  0  0  0  0  0  0  0  0  0
   22.4942   19.1809   20.2471 C   0  0  0  0  0  0  0  0  0  0  0  0
   23.2138   26.3067   20.3567 N   0  0  0  0  0  0  0  0  0  0  0  0
   22.7718   22.6265   17.7656 C   0  0  0  0  0  0  0  0  0  0  0  0
   24.9058   25.5340   18.2249 N   0  0  0  0  0  0  0  0  0  0  0  0
   23.8196   23.5321   17.9606 C   0  0  0  0  0  0  0  0  0  0  0  0
   22.8891   25.6004   16.7948 C   0  0  0  0  0  0  0  0  0  0  0  0
   23.7928   24.9016   17.6264 C   0  0  0  0  0  0  0  0  0  0  0  0
   23.3191   27.7570   20.5460 C   0  0  0  0  0  0  0  0  0  0  0  0
   24.2188   23.7950   22.6116 N   0  0  0  0  0  0  0  0  0  0  0  0
   23.0948   23.0054   22.3248 C   0  0  0  0  0  0  0  0  0  0  0  0
   22.9859   25.7232   21.7488 C   0  0  0  0  0  0  0  0  0  0  0  0
   21.7849   22.8259   16.8026 C   0  0  0  0  0  0  0  0  0  0  0  0
   23.6765   20.3920   22.0836 C   0  0  0  0  0  0  0  0  0  0  0  0
   23.9318   18.6909   19.8410 C   0  0  0  0  0  0  0  0  0  0  0  0
   20.4532   22.9464   22.1448 N   0  0  0  0  0  0  0  0  0  0  0  0
   22.7677   21.4529   18.6564 C   0  0  0  0  0  0  0  0  0  0  0  0
   21.9373   25.1167   15.9984 N   0  0  0  0  0  0  0  0  0  0  0  0
   22.0060   20.2858   19.2718 C   0  0  0  0  0  0  0  0  0  0  0  0
   18.8067   24.2622   21.3369 O   0  0  0  0  0  0  0  0  0  0  0  0
   24.1379   25.1174   22.3433 C   0  0  0  0  0  0  0  0  0  0  0  0
  1 12  1  0
  1 24  1  0
  2  3  2  0
  3 26  1  0
  3 30  1  0
  4  7  1  0
  4 16  1  0
  5 10  2  0
  5 21  1  0
  5 26  1  0
  6 12  1  0
  7 15  1  0
  8 19  1  0
  8 22  1  0
  9 23  1  0
  9 28  2  0
 10 22  1  0
 11 21  2  3
 11 24  1  0
 12 25  1  0
 12 29  1  0
 13 19  1  0
 13 22  1  0
 14 16  1  0
 14 23  2  0
 14 27  1  0
 15 18  1  0
 16 18  1  0
 17 18  2  0
 17 28  1  0
 20 21  1  0
 20 31  2  0
 22 31  1  0
 27 29  2  3
M  END
$$$$
