
     RDKit          3D

 14 15  0  0  0  0  0  0  0  0999 V2000
   18.6156   24.4151   21.1269 O   0  0  0  0  0  0  0  0  0  0  0  0
   23.9202   21.2202   20.6721 C   0  0  0  0  0  0  0  0  0  0  0  0
   22.2850   23.1530   20.9453 O   0  0  0  0  0  0  0  0  0  0  0  0
   20.4268   22.2422   19.8005 C   0  0  0  0  0  0  0  0  0  0  0  0
   24.6702   21.6663   19.4530 C   0  0  0  0  0  0  0  0  0  0  0  0
   22.5245   21.7113   20.7757 C   0  0  0  0  0  0  0  0  0  0  0  0
   20.7079   23.1933   20.9555 C   0  0  0  0  0  0  0  0  0  0  0  0
   22.4592   22.1443   18.3594 C   0  0  0  0  0  0  0  0  0  0  0  0
   21.7125   21.3905   19.4971 C   0  0  0  0  0  0  0  0  0  0  0  0
   24.3925   20.8007   21.8888 O   0  0  0  0  0  0  0  0  0  0  0  0
   23.8538   21.5292   18.1581 C   0  0  0  0  0  0  0  0  0  0  0  0
   20.3916   22.5514   22.1628 O   0  0  0  0  0  0  0  0  0  0  0  0
   24.4950   22.1389   16.9012 C   0  0  0  0  0  0  0  0  0  0  0  0
   19.8700   24.3886   20.8698 C   0  0  0  0  0  0  0  0  0  0  0  0
  1 14  2  0
  2  5  1  0
  2  6  1  0
  2 10  1  0
  3  6  1  0
  3  7  1  0
  4  7  1  0
  4  9  1  0
  5 11  1  0
  6  9  1  0
  7 12  1  0
  7 14  1  0
  8  9  1  0
  8 11  1  0
 11 13  1  0
M  END
$$$$
