
     RDKit          3D

 23 25  0  0  0  0  0  0  0  0999 V2000
  101.5017    6.7097  -90.7024 C   0  0  0  0  0  0  0  0  0  0  0  0
  100.3523    7.6301  -90.3368 C   0  0  0  0  0  0  0  0  0  0  0  0
  100.4680    5.2585  -88.2921 C   0  0  0  0  0  0  0  0  0  0  0  0
   98.1699    7.7629  -89.8443 C   0  0  0  0  0  0  0  0  0  0  0  0
   97.9474   10.2162  -91.3057 C   0  0  0  0  0  0  0  0  0  0  0  0
  102.8927    3.1761  -93.2721 C   0  0  0  0  0  0  0  0  0  0  0  0
  100.8737    9.7778  -91.1843 C   0  0  0  0  0  0  0  0  0  0  0  0
  102.1141    9.5949  -91.3028 N   0  0  0  0  0  0  0  0  0  0  0  0
  103.5601    5.1376  -91.7255 C   0  0  0  0  0  0  0  0  0  0  0  0
  103.7120    3.6682  -92.1979 C   0  0  0  0  0  0  0  0  0  0  0  0
  105.1118    3.3770  -91.8942 C   0  0  0  0  0  0  0  0  0  0  0  0
   99.5741    5.6620  -89.3104 C   0  0  0  0  0  0  0  0  0  0  0  0
   98.9057    4.8938  -90.0021 O   0  0  0  0  0  0  0  0  0  0  0  0
   99.9687    8.8562  -90.7975 C   0  0  0  0  0  0  0  0  0  0  0  0
  101.8107    5.2423  -91.3694 C   0  0  0  0  0  0  0  0  0  0  0  0
   99.2711    7.0181  -89.6243 C   0  0  0  0  0  0  0  0  0  0  0  0
  102.7529    8.4231  -91.4649 C   0  0  0  0  0  0  0  0  0  0  0  0
  102.7078    7.3757  -90.8267 C   0  0  0  0  0  0  0  0  0  0  0  0
  105.4214    4.1493  -90.8370 C   0  0  0  0  0  0  0  0  0  0  0  0
  105.8823    2.8752  -92.9956 O   0  0  0  0  0  0  0  0  0  0  0  0
  104.3636    5.1784  -90.5347 C   0  0  0  0  0  0  0  0  0  0  0  0
   98.5563    8.9515  -90.6061 C   0  0  0  0  0  0  0  0  0  0  0  0
   98.6818   11.2877  -91.7963 C   0  0  0  0  0  0  0  0  0  0  0  0
  1  2  1  0
  1 15  1  0
  1 18  1  0
  2 14  1  0
  2 16  1  0
  3 12  1  0
  4 16  1  0
  4 22  1  0
  5 22  2  3
  5 23  1  0
  6 10  1  0
  7  8  1  0
  7 14  2  0
  8 17  1  0
  9 10  1  0
  9 15  1  0
  9 21  1  0
 10 11  1  0
 11 19  1  0
 11 20  1  0
 12 13  2  0
 12 16  1  0
 14 22  1  0
 17 18  1  0
 19 21  1  0
M  END
$$$$
