
     RDKit          3D

 28 31  0  0  0  0  0  0  0  0999 V2000
  102.0046    5.2809  -92.0595 O   0  0  0  0  0  0  0  0  0  0  0  0
   98.7501    7.6612  -90.3066 C   0  0  0  0  0  0  0  0  0  0  0  0
   97.5988    7.0354  -89.5672 C   0  0  0  0  0  0  0  0  0  0  0  0
  100.5360    9.8886  -91.1962 N   0  0  0  0  0  0  0  0  0  0  0  0
   97.0805    9.3159  -90.0210 N   0  0  0  0  0  0  0  0  0  0  0  0
   98.3577    8.9332  -90.4678 C   0  0  0  0  0  0  0  0  0  0  0  0
  106.0154    3.1401  -92.5598 O   0  0  0  0  0  0  0  0  0  0  0  0
   96.6203    8.1572  -89.3043 N   0  0  0  0  0  0  0  0  0  0  0  0
  102.1692    6.3293  -91.1911 C   0  0  0  0  0  0  0  0  0  0  0  0
  104.2717    5.3781  -90.7069 C   0  0  0  0  0  0  0  0  0  0  0  0
  103.5167    6.6568  -90.8263 C   0  0  0  0  0  0  0  0  0  0  0  0
   98.5632   11.3256  -91.6291 C   0  0  0  0  0  0  0  0  0  0  0  0
  101.3723    8.7852  -91.1336 C   0  0  0  0  0  0  0  0  0  0  0  0
   99.7262    7.0530  -90.8794 C   0  0  0  0  0  0  0  0  0  0  0  0
   99.2974    4.7765  -90.6210 O   0  0  0  0  0  0  0  0  0  0  0  0
  103.0800    4.4763  -92.4413 C   0  0  0  0  0  0  0  0  0  0  0  0
  100.6689    5.2179  -92.4905 C   0  0  0  0  0  0  0  0  0  0  0  0
  104.7976    2.3421  -91.0509 O   0  0  0  0  0  0  0  0  0  0  0  0
  104.3939    4.5748  -91.8721 C   0  0  0  0  0  0  0  0  0  0  0  0
  105.2166    3.2893  -91.7873 C   0  0  0  0  0  0  0  0  0  0  0  0
  100.6316    4.1033  -93.3430 O   0  0  0  0  0  0  0  0  0  0  0  0
  102.5491    9.0705  -91.3815 O   0  0  0  0  0  0  0  0  0  0  0  0
  101.5631    3.8346  -94.1472 C   0  0  0  0  0  0  0  0  0  0  0  0
  101.0197    7.4220  -90.9929 C   0  0  0  0  0  0  0  0  0  0  0  0
   99.5863    5.7010  -91.5297 C   0  0  0  0  0  0  0  0  0  0  0  0
  102.8688    3.5050  -93.5016 C   0  0  0  0  0  0  0  0  0  0  0  0
  104.1786    7.5608  -90.3395 O   0  0  0  0  0  0  0  0  0  0  0  0
   99.2525    9.9498  -91.1216 C   0  0  0  0  0  0  0  0  0  0  0  0
  1  9  1  0
  1 16  1  0
  2  3  1  0
  2  6  1  0
  2 14  1  0
  3  8  1  0
  4 13  1  0
  4 28  1  0
  5  6  1  0
  5  8  1  0
  6 28  1  0
  7 20  2  0
  9 11  1  0
  9 24  1  0
 10 11  1  0
 10 19  1  0
 11 27  2  0
 12 28  1  0
 13 22  2  0
 13 24  1  0
 14 24  1  0
 14 25  1  0
 15 25  1  0
 16 19  1  0
 16 26  1  0
 17 21  1  0
 17 25  1  0
 18 20  1  0
 19 20  1  0
 21 23  1  0
 23 26  1  0
M  END
$$$$
