
     RDKit          3D

 26 28  0  0  0  0  0  0  0  0999 V2000
   -1.3316   26.4085  -32.9800 O   0  0  0  0  0  0  0  0  0  0  0  0
    2.5316   19.2705  -32.5915 C   0  0  0  0  0  0  0  0  0  0  0  0
   -0.8136   21.8181  -31.6713 C   0  0  0  0  0  0  0  0  0  0  0  0
    0.6254   22.0640  -33.9511 O   0  0  0  0  0  0  0  0  0  0  0  0
   -0.3596   24.5463  -32.0824 O   0  0  0  0  0  0  0  0  0  0  0  0
    1.6819   19.0741  -31.4144 C   0  0  0  0  0  0  0  0  0  0  0  0
   -1.2664   25.6078  -32.0043 C   0  0  0  0  0  0  0  0  0  0  0  0
    3.5802   18.4573  -32.9683 C   0  0  0  0  0  0  0  0  0  0  0  0
    1.1117   21.2022  -33.0461 C   0  0  0  0  0  0  0  0  0  0  0  0
   -3.4858   24.5419  -29.2028 C   0  0  0  0  0  0  0  0  0  0  0  0
   -0.9625   23.2956  -31.6012 C   0  0  0  0  0  0  0  0  0  0  0  0
   -1.4530   23.6782  -30.2442 C   0  0  0  0  0  0  0  0  0  0  0  0
    2.2188   20.3977  -33.3840 C   0  0  0  0  0  0  0  0  0  0  0  0
    3.9867   19.8663  -34.8254 C   0  0  0  0  0  0  0  0  0  0  0  0
    4.3052   18.7614  -34.0672 C   0  0  0  0  0  0  0  0  0  0  0  0
    0.3995   21.0205  -31.8503 C   0  0  0  0  0  0  0  0  0  0  0  0
    0.7732   20.0073  -31.0573 N   0  0  0  0  0  0  0  0  0  0  0  0
   -2.3709   26.8510  -30.1397 C   0  0  0  0  0  0  0  0  0  0  0  0
   -3.6660   27.0917  -29.6766 O   0  0  0  0  0  0  0  0  0  0  0  0
   -2.5977   24.5006  -30.2956 C   0  0  0  0  0  0  0  0  0  0  0  0
    1.8088   17.9409  -30.7233 N   0  0  0  0  0  0  0  0  0  0  0  0
   -0.8811   23.0135  -29.2397 O   0  0  0  0  0  0  0  0  0  0  0  0
   -1.9770   21.1950  -30.9832 C   0  0  0  0  0  0  0  0  0  0  0  0
    2.9585   20.7042  -34.4745 N   0  0  0  0  0  0  0  0  0  0  0  0
   -2.9471   24.8414  -27.9668 O   0  0  0  0  0  0  0  0  0  0  0  0
   -2.2409   25.7232  -30.9777 C   0  0  0  0  0  0  0  0  0  0  0  0
  1  7  2  0
  2  6  1  0
  2  8  1  0
  2 13  1  0
  3 11  1  0
  3 16  1  0
  3 23  1  0
  4  9  1  0
  5  7  1  0
  5 11  1  0
  6 17  1  0
  6 21  2  0
  7 26  1  0
  8 15  2  0
  9 13  2  0
  9 16  1  0
 10 20  1  0
 10 25  1  0
 11 12  1  0
 12 20  1  0
 12 22  1  0
 13 24  1  0
 14 15  1  0
 14 24  2  0
 16 17  2  0
 18 19  1  0
 18 26  1  0
 20 26  1  0
M  END
$$$$
