
     RDKit          3D

 28 31  0  0  0  0  0  0  0  0999 V2000
    0.7128   20.8744  -30.2904 C   0  0  0  0  0  0  0  0  0  0  0  0
   -2.6459   24.2632  -29.5968 C   0  0  0  0  0  0  0  0  0  0  0  0
   -1.3532   22.2113  -29.7549 C   0  0  0  0  0  0  0  0  0  0  0  0
    1.7588   18.1691  -30.8345 C   0  0  0  0  0  0  0  0  0  0  0  0
    1.0461   22.4311  -33.4478 N   0  0  0  0  0  0  0  0  0  0  0  0
   -3.9861   26.1891  -29.2395 C   0  0  0  0  0  0  0  0  0  0  0  0
    0.9923   20.4144  -31.9632 N   0  0  0  0  0  0  0  0  0  0  0  0
   -3.4065   26.7683  -30.3321 C   0  0  0  0  0  0  0  0  0  0  0  0
   -0.4020   22.5561  -33.3394 O   0  0  0  0  0  0  0  0  0  0  0  0
    1.5711   21.8584  -30.1411 O   0  0  0  0  0  0  0  0  0  0  0  0
   -4.9301   26.8548  -28.5980 F   0  0  0  0  0  0  0  0  0  0  0  0
   -3.6167   24.9046  -28.8758 C   0  0  0  0  0  0  0  0  0  0  0  0
   -2.0569   24.8458  -30.7358 C   0  0  0  0  0  0  0  0  0  0  0  0
   -0.6909   21.9572  -31.0634 C   0  0  0  0  0  0  0  0  0  0  0  0
    4.2544   19.3158  -35.1250 C   0  0  0  0  0  0  0  0  0  0  0  0
   -0.4712   25.1029  -32.5018 O   0  0  0  0  0  0  0  0  0  0  0  0
    2.4331   18.9876  -33.0834 C   0  0  0  0  0  0  0  0  0  0  0  0
    3.2577   17.9372  -33.4502 C   0  0  0  0  0  0  0  0  0  0  0  0
    1.3943   19.0204  -32.0704 C   0  0  0  0  0  0  0  0  0  0  0  0
   -2.2920   22.9511  -29.2270 N   0  0  0  0  0  0  0  0  0  0  0  0
    1.5593   21.1900  -33.0657 C   0  0  0  0  0  0  0  0  0  0  0  0
   -2.4703   26.0728  -31.0335 C   0  0  0  0  0  0  0  0  0  0  0  0
    3.4176   20.3940  -34.6913 C   0  0  0  0  0  0  0  0  0  0  0  0
    2.5043   20.2062  -33.7078 C   0  0  0  0  0  0  0  0  0  0  0  0
   -0.9161   22.9117  -32.0796 C   0  0  0  0  0  0  0  0  0  0  0  0
   -1.0970   24.2637  -31.6576 C   0  0  0  0  0  0  0  0  0  0  0  0
    4.1704   18.0653  -34.5105 C   0  0  0  0  0  0  0  0  0  0  0  0
   -0.0317   20.0049  -29.7613 O   0  0  0  0  0  0  0  0  0  0  0  0
  1  7  1  0
  1 10  2  0
  1 28  1  0
  2 12  1  0
  2 13  2  0
  2 20  1  0
  3 14  2  0
  3 20  1  0
  4 19  1  0
  5  9  1  0
  5 21  2  3
  6  8  1  0
  6 11  1  0
  6 12  2  0
  7 19  1  0
  7 21  1  0
  8 22  2  0
  9 25  1  0
 13 22  1  0
 13 26  1  0
 14 25  1  0
 15 23  1  0
 15 27  2  0
 16 26  1  0
 17 18  2  0
 17 19  1  0
 17 24  1  0
 18 27  1  0
 21 24  1  0
 23 24  2  0
 25 26  1  0
M  END
$$$$
