
     RDKit          3D

 28 31  0  0  0  0  0  0  0  0999 V2000
    1.6816   20.2811  -32.0635 C   0  0  0  0  0  0  0  0  0  0  0  0
   -1.1267   24.1107  -31.6887 C   0  0  0  0  0  0  0  0  0  0  0  0
   -0.4073   21.5490  -31.0561 C   0  0  0  0  0  0  0  0  0  0  0  0
    3.4478   19.2780  -33.4350 C   0  0  0  0  0  0  0  0  0  0  0  0
    2.8827   19.6436  -32.2203 O   0  0  0  0  0  0  0  0  0  0  0  0
   -4.4417   26.0826  -28.7224 O   0  0  0  0  0  0  0  0  0  0  0  0
    1.0164   18.2451  -31.0162 N   0  0  0  0  0  0  0  0  0  0  0  0
    3.5340   20.1722  -34.5045 C   0  0  0  0  0  0  0  0  0  0  0  0
   -0.9815   22.3760  -30.0741 C   0  0  0  0  0  0  0  0  0  0  0  0
    1.3818   21.5192  -32.5632 C   0  0  0  0  0  0  0  0  0  0  0  0
    3.9685   17.9802  -33.5777 C   0  0  0  0  0  0  0  0  0  0  0  0
    0.6999   19.5368  -31.3378 C   0  0  0  0  0  0  0  0  0  0  0  0
   -0.2298   23.4371  -32.5245 C   0  0  0  0  0  0  0  0  0  0  0  0
    4.5705   17.5927  -34.7891 C   0  0  0  0  0  0  0  0  0  0  0  0
   -0.9097   21.9951  -28.8059 O   0  0  0  0  0  0  0  0  0  0  0  0
   -1.4595   23.6252  -30.4485 C   0  0  0  0  0  0  0  0  0  0  0  0
   -2.0799   25.8302  -31.9740 S   0  0  0  0  0  0  0  0  0  0  0  0
    4.1446   19.7919  -35.7002 C   0  0  0  0  0  0  0  0  0  0  0  0
   -2.7759   25.5658  -30.3117 C   0  0  0  0  0  0  0  0  0  0  0  0
   -1.7015   19.5186  -30.8197 O   0  0  0  0  0  0  0  0  0  0  0  0
   -3.8412   27.5867  -30.2219 O   0  0  0  0  0  0  0  0  0  0  0  0
   -2.8113   23.9529  -28.5442 O   0  0  0  0  0  0  0  0  0  0  0  0
   -3.7353   26.4957  -29.7076 C   0  0  0  0  0  0  0  0  0  0  0  0
   -2.3723   24.3868  -29.6487 C   0  0  0  0  0  0  0  0  0  0  0  0
   -0.4695   20.1744  -30.9830 C   0  0  0  0  0  0  0  0  0  0  0  0
    4.6507   18.5054  -35.8587 C   0  0  0  0  0  0  0  0  0  0  0  0
    0.2662   22.2024  -32.0954 C   0  0  0  0  0  0  0  0  0  0  0  0
   -1.8584   18.1198  -31.1092 C   0  0  0  0  0  0  0  0  0  0  0  0
  1  5  1  0
  1 10  1  0
  1 12  2  0
  2 13  1  0
  2 16  2  0
  2 17  1  0
  3  9  1  0
  3 25  1  0
  3 27  1  0
  4  5  1  0
  4  8  1  0
  4 11  2  0
  6 23  2  0
  7 12  1  0
  8 18  1  0
  9 15  1  0
  9 16  1  0
 10 27  2  0
 11 14  1  0
 12 25  1  0
 13 27  1  0
 14 26  1  0
 16 24  1  0
 17 19  1  0
 18 26  2  0
 19 23  1  0
 19 24  1  0
 20 25  1  0
 20 28  1  0
 21 23  1  0
 22 24  2  0
M  END
$$$$
