
     RDKit          3D

 22 24  0  0  0  0  0  0  0  0999 V2000
    4.4045   18.4104  -33.2173 C   0  0  0  0  0  0  0  0  0  0  0  0
   -3.1947   24.5295  -28.4945 O   0  0  0  0  0  0  0  0  0  0  0  0
   -0.5016   22.0359  -29.1946 O   0  0  0  0  0  0  0  0  0  0  0  0
    3.7990   19.4757  -33.8315 C   0  0  0  0  0  0  0  0  0  0  0  0
   -3.0756   25.5681  -29.2556 C   0  0  0  0  0  0  0  0  0  0  0  0
   -0.2921   19.8000  -31.0216 C   0  0  0  0  0  0  0  0  0  0  0  0
    2.7061   20.0223  -33.2354 C   0  0  0  0  0  0  0  0  0  0  0  0
    2.0795   19.5784  -32.1007 C   0  0  0  0  0  0  0  0  0  0  0  0
   -1.4230   20.6280  -30.7685 C   0  0  0  0  0  0  0  0  0  0  0  0
   -0.3824   23.4994  -32.6630 C   0  0  0  0  0  0  0  0  0  0  0  0
   -1.0222   22.1774  -30.5215 C   0  0  0  0  0  0  0  0  0  0  0  0
   -3.6958   26.6333  -28.8308 N   0  0  0  0  0  0  0  0  0  0  0  0
    1.8588   22.2659  -32.2979 O   0  0  0  0  0  0  0  0  0  0  0  0
    0.8782   20.2314  -31.5947 C   0  0  0  0  0  0  0  0  0  0  0  0
   -2.5445   25.6593  -30.6053 C   0  0  0  0  0  0  0  0  0  0  0  0
   -0.8877   24.7751  -32.1762 C   0  0  0  0  0  0  0  0  0  0  0  0
   -0.2201   22.4985  -31.6274 C   0  0  0  0  0  0  0  0  0  0  0  0
   -1.6715   23.4699  -30.3175 N   0  0  0  0  0  0  0  0  0  0  0  0
   -1.7533   24.5968  -31.0801 C   0  0  0  0  0  0  0  0  0  0  0  0
    0.9055   21.6328  -31.9001 C   0  0  0  0  0  0  0  0  0  0  0  0
    3.8440   17.9408  -32.0107 C   0  0  0  0  0  0  0  0  0  0  0  0
    2.6783   18.5289  -31.4629 C   0  0  0  0  0  0  0  0  0  0  0  0
  1  4  2  0
  1 21  1  0
  2  5  2  0
  3 11  1  0
  4  7  1  0
  5 12  1  0
  5 15  1  0
  6  9  1  0
  6 14  2  0
  7  8  2  0
  8 14  1  0
  8 22  1  0
  9 11  1  0
 10 16  1  0
 10 17  1  0
 11 17  1  0
 11 18  1  0
 13 20  2  0
 14 20  1  0
 15 19  1  0
 16 19  1  0
 17 20  1  0
 18 19  2  0
 21 22  2  0
M  END
$$$$
