
     RDKit          3D

 31 32  0  0  0  0  0  0  0  0999 V2000
   32.6208   33.3930  103.4131 N   0  0  0  0  0  0  0  0  0  0  0  0
   23.4764   32.1782  106.2248 C   0  0  0  0  0  0  0  0  0  0  0  0
   29.0358   34.5419  105.7166 C   0  0  0  0  0  0  0  0  0  0  0  0
   22.7292   34.9390  106.2904 C   0  0  0  0  0  0  0  0  0  0  0  0
   31.5493   34.1935  105.3781 C   0  0  0  0  0  0  0  0  0  0  0  0
   28.5414   35.1511  104.5454 C   0  0  0  0  0  0  0  0  0  0  0  0
   29.4887   35.3270  103.5878 C   0  0  0  0  0  0  0  0  0  0  0  0
   25.9221   34.2740  108.1107 O   0  0  0  0  0  0  0  0  0  0  0  0
   32.3256   33.1773  105.8934 F   0  0  0  0  0  0  0  0  0  0  0  0
   32.2691   35.2894  105.6948 F   0  0  0  0  0  0  0  0  0  0  0  0
   32.8282   33.6909  102.0154 O   0  0  0  0  0  0  0  0  0  0  0  0
   21.7052   33.9096  106.1680 N   0  0  0  0  0  0  0  0  0  0  0  0
   30.0677   33.5291  102.2456 O   0  0  0  0  0  0  0  0  0  0  0  0
   27.1824   35.6632  104.2656 C   0  0  0  0  0  0  0  0  0  0  0  0
   25.2953   36.0749  101.4182 C   0  0  0  0  0  0  0  0  0  0  0  0
   28.3166   34.0631  106.7150 Cl  0  0  0  0  0  0  0  0  0  0  0  0
   30.4114   34.3377  103.2248 C   0  0  0  0  0  0  0  0  0  0  0  0
   26.3579   36.6965  101.2362 O   0  0  0  0  0  0  0  0  0  0  0  0
   20.3345   34.3871  106.0396 C   0  0  0  0  0  0  0  0  0  0  0  0
   29.5587   36.5092  103.0659 O   0  0  0  0  0  0  0  0  0  0  0  0
   24.4193   33.2154  106.6124 C   0  0  0  0  0  0  0  0  0  0  0  0
   22.0443   32.6154  105.8365 C   0  0  0  0  0  0  0  0  0  0  0  0
   24.0519   34.4746  105.6628 C   0  0  0  0  0  0  0  0  0  0  0  0
   21.0902   31.7476  105.9297 O   0  0  0  0  0  0  0  0  0  0  0  0
   25.1389   35.3772  102.6552 N   0  0  0  0  0  0  0  0  0  0  0  0
   25.2302   34.3197  104.6717 C   0  0  0  0  0  0  0  0  0  0  0  0
   24.2793   36.1882  100.6308 O   0  0  0  0  0  0  0  0  0  0  0  0
   30.2482   34.2120  105.9951 C   0  0  0  0  0  0  0  0  0  0  0  0
   24.8739   33.7166  107.8383 C   0  0  0  0  0  0  0  0  0  0  0  0
   26.0921   35.0140  103.6291 C   0  0  0  0  0  0  0  0  0  0  0  0
   31.5037   34.0205  103.9688 C   0  0  0  0  0  0  0  0  0  0  0  0
  1 11  1  0
  1 31  1  0
  2 21  1  0
  2 22  1  0
  3  6  1  0
  3 16  1  0
  3 28  2  0
  4 12  1  0
  4 23  1  0
  5  9  1  0
  5 10  1  0
  5 28  1  0
  5 31  1  0
  6  7  1  0
  6 14  1  0
  7 17  1  0
  7 20  1  0
  8 29  2  0
 12 19  1  0
 12 22  1  0
 13 17  1  0
 14 30  1  0
 15 18  2  0
 15 25  1  0
 15 27  1  0
 17 31  1  0
 21 23  1  0
 21 29  1  0
 22 24  2  0
 23 26  1  0
 25 30  1  0
 26 30  1  0
M  END
$$$$
