
     RDKit          3D

 29 31  0  0  0  0  0  0  0  0999 V2000
   26.7492   35.9634  102.0577 C   0  0  0  0  0  0  0  0  0  0  0  0
   32.2811   33.9855  102.1061 O   0  0  0  0  0  0  0  0  0  0  0  0
   29.1786   35.5317  103.7790 C   0  0  0  0  0  0  0  0  0  0  0  0
   22.9933   35.7419   99.8740 O   0  0  0  0  0  0  0  0  0  0  0  0
   25.1194   36.8300  100.2508 C   0  0  0  0  0  0  0  0  0  0  0  0
   23.8523   32.7752  106.1405 C   0  0  0  0  0  0  0  0  0  0  0  0
   30.1406   35.2767  104.7915 O   0  0  0  0  0  0  0  0  0  0  0  0
   25.0619   34.8404  103.2766 C   0  0  0  0  0  0  0  0  0  0  0  0
   31.4691   35.3730  104.1446 C   0  0  0  0  0  0  0  0  0  0  0  0
   32.6915   33.4230  104.3960 O   0  0  0  0  0  0  0  0  0  0  0  0
   27.2391   34.7647  104.4002 C   0  0  0  0  0  0  0  0  0  0  0  0
   29.0589   33.1506  103.3008 C   0  0  0  0  0  0  0  0  0  0  0  0
   22.3811   32.5578  106.5120 C   0  0  0  0  0  0  0  0  0  0  0  0
   24.4572   35.1303  102.0106 C   0  0  0  0  0  0  0  0  0  0  0  0
   24.8505   34.1023  104.4773 C   0  0  0  0  0  0  0  0  0  0  0  0
   24.1649   34.1714  106.7089 C   0  0  0  0  0  0  0  0  0  0  0  0
   24.1125   36.0696   99.3362 C   0  0  0  0  0  0  0  0  0  0  0  0
   30.5154   33.0746  103.3153 C   0  0  0  0  0  0  0  0  0  0  0  0
   26.1083   33.6119  107.8504 O   0  0  0  0  0  0  0  0  0  0  0  0
   23.8383   33.0495  104.6113 C   0  0  0  0  0  0  0  0  0  0  0  0
   29.0644   36.7127  103.3955 O   0  0  0  0  0  0  0  0  0  0  0  0
   24.7255   35.4899   98.3148 O   0  0  0  0  0  0  0  0  0  0  0  0
   26.3467   35.5759  103.4612 C   0  0  0  0  0  0  0  0  0  0  0  0
   24.9334   34.0563  108.0090 C   0  0  0  0  0  0  0  0  0  0  0  0
   28.3588   34.4020  103.4302 C   0  0  0  0  0  0  0  0  0  0  0  0
   25.5779   35.7911  101.2472 C   0  0  0  0  0  0  0  0  0  0  0  0
   31.7531   33.9661  103.4788 C   0  0  0  0  0  0  0  0  0  0  0  0
   25.0602   34.7816  105.7222 O   0  0  0  0  0  0  0  0  0  0  0  0
   24.3905   34.5134  109.0193 O   0  0  0  0  0  0  0  0  0  0  0  0
  1 23  1  0
  1 26  1  0
  2 27  1  0
  3  7  1  0
  3 21  2  0
  3 25  1  0
  4 17  2  0
  5 17  1  0
  5 26  1  0
  6 13  1  0
  6 16  1  0
  6 20  1  0
  7  9  1  0
  8 14  1  0
  8 15  1  0
  8 23  1  0
  9 27  1  0
 10 27  1  0
 11 23  1  0
 11 25  1  0
 12 18  2  0
 12 25  1  0
 14 26  1  0
 15 20  1  0
 15 28  1  0
 16 24  1  0
 16 28  1  0
 17 22  1  0
 18 27  1  0
 19 24  2  0
 24 29  1  0
M  END
$$$$
