
     RDKit          3D

 28 29  0  0  0  0  0  0  0  0999 V2000
   27.6173   34.4002  104.7967 C   0  0  0  0  0  0  0  0  0  0  0  0
   24.3325   33.9117  104.8315 C   0  0  0  0  0  0  0  0  0  0  0  0
   20.4031   34.2333  107.1659 O   0  0  0  0  0  0  0  0  0  0  0  0
   24.9737   35.9234   99.1011 C   0  0  0  0  0  0  0  0  0  0  0  0
   22.6862   33.9918  106.3412 C   0  0  0  0  0  0  0  0  0  0  0  0
   23.9870   34.2271  106.0917 N   0  0  0  0  0  0  0  0  0  0  0  0
   31.5786   32.5172  103.0738 C   0  0  0  0  0  0  0  0  0  0  0  0
   21.7445   34.7891  107.2466 C   0  0  0  0  0  0  0  0  0  0  0  0
   27.9241   34.4880   97.5486 O   0  0  0  0  0  0  0  0  0  0  0  0
   28.8998   34.6852  104.0251 C   0  0  0  0  0  0  0  0  0  0  0  0
   29.4237   35.9794  103.8102 C   0  0  0  0  0  0  0  0  0  0  0  0
   23.8982   36.7449   99.8876 C   0  0  0  0  0  0  0  0  0  0  0  0
   28.7327   37.0551  103.9185 O   0  0  0  0  0  0  0  0  0  0  0  0
   25.2947   34.6667  104.0237 C   0  0  0  0  0  0  0  0  0  0  0  0
   24.9016   34.4966  107.2471 C   0  0  0  0  0  0  0  0  0  0  0  0
   25.8592   35.6363   97.9114 C   0  0  0  0  0  0  0  0  0  0  0  0
   25.2294   34.5627  102.5629 C   0  0  0  0  0  0  0  0  0  0  0  0
   30.9123   33.7272  103.3484 C   0  0  0  0  0  0  0  0  0  0  0  0
   29.5939   33.6113  103.6557 C   0  0  0  0  0  0  0  0  0  0  0  0
   31.4806   34.9426  103.2548 N   0  0  0  0  0  0  0  0  0  0  0  0
   25.5293   35.0234  100.1840 O   0  0  0  0  0  0  0  0  0  0  0  0
   26.1328   36.6213  101.7878 O   0  0  0  0  0  0  0  0  0  0  0  0
   26.9419   34.6626   98.4641 C   0  0  0  0  0  0  0  0  0  0  0  0
   26.4337   35.3099  104.6745 C   0  0  0  0  0  0  0  0  0  0  0  0
   22.2943   33.1185  105.3682 C   0  0  0  0  0  0  0  0  0  0  0  0
   23.3752   33.0549  104.3996 C   0  0  0  0  0  0  0  0  0  0  0  0
   30.7746   36.0000  103.4627 N   0  0  0  0  0  0  0  0  0  0  0  0
   25.5657   35.5395  101.4990 C   0  0  0  0  0  0  0  0  0  0  0  0
  1 10  1  0
  1 24  1  0
  2  6  1  0
  2 14  1  0
  2 26  1  0
  3  8  1  0
  4 12  1  0
  4 16  1  0
  4 21  1  0
  5  6  1  0
  5  8  1  0
  5 25  1  0
  6 15  1  0
  7 18  1  0
  9 23  1  0
 10 11  1  0
 10 19  1  0
 11 13  2  0
 11 27  1  0
 14 17  1  0
 14 24  1  0
 16 23  1  0
 17 28  1  0
 18 19  2  0
 18 20  1  0
 20 27  2  0
 21 28  1  0
 22 28  2  0
 25 26  1  0
M  END
$$$$
