
     RDKit          3D

 17 17  0  0  0  0  0  0  0  0999 V2000
    3.2971   -0.5894   20.0284 C   0  0  0  0  0  0  0  0  0  0  0  0
    1.9762   -2.4688   19.3353 C   0  0  0  0  0  0  0  0  0  0  0  0
    2.0989   -3.5560   15.6776 C   0  0  0  0  0  0  0  0  0  0  0  0
    4.6350   -2.5149   16.9439 O   0  0  0  0  0  0  0  0  0  0  0  0
    1.0944   -2.2823   20.4098 C   0  0  0  0  0  0  0  0  0  0  0  0
    1.2910   -1.1870   21.2694 C   0  0  0  0  0  0  0  0  0  0  0  0
    2.1262   -2.9630   16.9521 N   0  0  0  0  0  0  0  0  0  0  0  0
    2.9512   -3.4655   14.7130 O   0  0  0  0  0  0  0  0  0  0  0  0
   -0.2235   -4.1209   16.5804 C   0  0  0  0  0  0  0  0  0  0  0  0
    0.9601   -5.0866   13.0709 C   0  0  0  0  0  0  0  0  0  0  0  0
    0.3411   -5.0418   14.3718 C   0  0  0  0  0  0  0  0  0  0  0  0
    2.3768   -0.3484   21.0563 C   0  0  0  0  0  0  0  0  0  0  0  0
    1.0149   -4.5894   15.6352 C   0  0  0  0  0  0  0  0  0  0  0  0
    1.7290   -3.5028   18.3133 C   0  0  0  0  0  0  0  0  0  0  0  0
    3.1651   -1.6604   19.1886 C   0  0  0  0  0  0  0  0  0  0  0  0
    4.2682   -1.9136   18.1803 C   0  0  0  0  0  0  0  0  0  0  0  0
    5.4293   -1.4300   18.7068 O   0  0  0  0  0  0  0  0  0  0  0  0
  1 12  1  0
  1 15  2  0
  2  5  2  0
  2 14  1  0
  2 15  1  0
  3  7  1  0
  3  8  2  0
  3 13  1  0
  4 16  2  0
  5  6  1  0
  6 12  2  0
  7 14  1  0
  9 13  1  0
 10 11  1  0
 11 13  1  0
 15 16  1  0
 16 17  1  0
M  END
$$$$
