
     RDKit          3D

 11 11  0  0  0  0  0  0  0  0999 V2000
   -0.8326   34.5079  -11.7380 C   0  0  0  0  0  0  0  0  0  0  0  0
    1.2655   32.7263  -11.9701 C   0  0  0  0  0  0  0  0  0  0  0  0
   -1.2782   35.0622  -10.4428 C   0  0  0  0  0  0  0  0  0  0  0  0
   -1.0871   33.1002  -11.9498 N   0  0  0  0  0  0  0  0  0  0  0  0
   -0.9646   30.0131  -12.5030 O   0  0  0  0  0  0  0  0  0  0  0  0
   -0.0878   32.0931  -11.8020 C   0  0  0  0  0  0  0  0  0  0  0  0
    1.4197   30.3707  -12.1986 N   0  0  0  0  0  0  0  0  0  0  0  0
    0.0456   30.7196  -12.2009 C   0  0  0  0  0  0  0  0  0  0  0  0
   -0.4810   36.2852  -10.1333 C   0  0  0  0  0  0  0  0  0  0  0  0
    2.2470   31.5488  -12.0063 C   0  0  0  0  0  0  0  0  0  0  0  0
   -0.5583   35.4314  -12.6269 O   0  0  0  0  0  0  0  0  0  0  0  0
  1  3  1  0
  1  4  1  0
  1 11  2  0
  2  6  1  0
  2 10  1  0
  3  9  1  0
  4  6  1  0
  5  8  2  0
  6  8  1  0
  7  8  1  0
  7 10  1  0
M  END
$$$$
