
     RDKit          3D

  9  9  0  0  0  0  0  0  0  0999 V2000
   -0.4258   31.9346  -12.3649 C   0  0  0  0  0  0  0  0  0  0  0  0
    0.2717   29.1599  -12.5676 C   0  0  0  0  0  0  0  0  0  0  0  0
    1.5137   29.3853  -13.2273 C   0  0  0  0  0  0  0  0  0  0  0  0
    1.2713   30.1029  -12.0116 C   0  0  0  0  0  0  0  0  0  0  0  0
   -0.5026   33.3044  -11.9475 C   0  0  0  0  0  0  0  0  0  0  0  0
    1.0219   34.7443  -10.8095 O   0  0  0  0  0  0  0  0  0  0  0  0
    0.7132   33.6467  -11.4579 C   0  0  0  0  0  0  0  0  0  0  0  0
    0.8111   31.4502  -12.1440 C   0  0  0  0  0  0  0  0  0  0  0  0
    1.5495   32.5732  -11.6682 O   0  0  0  0  0  0  0  0  0  0  0  0
  1  5  1  0
  1  8  1  0
  2  3  1  0
  3  4  1  0
  4  8  1  0
  5  7  1  0
  6  7  2  0
  7  9  1  0
  8  9  1  0
M  END
$$$$
