
     RDKit          3D

 10 11  0  0  0  0  0  0  0  0999 V2000
   -0.4413   32.7327  -12.3169 N   0  0  0  0  0  0  0  0  0  0  0  0
    1.4012   31.3259  -12.0206 C   0  0  0  0  0  0  0  0  0  0  0  0
    0.4436   33.2764  -11.3853 C   0  0  0  0  0  0  0  0  0  0  0  0
   -1.4923   33.6897  -12.4956 C   0  0  0  0  0  0  0  0  0  0  0  0
   -1.4008   36.1616  -12.1741 C   0  0  0  0  0  0  0  0  0  0  0  0
    0.1757   31.4603  -12.7372 C   0  0  0  0  0  0  0  0  0  0  0  0
    1.4731   32.4560  -11.2464 N   0  0  0  0  0  0  0  0  0  0  0  0
   -1.2250   34.8203  -11.7209 C   0  0  0  0  0  0  0  0  0  0  0  0
   -0.0340   34.5226  -10.9958 C   0  0  0  0  0  0  0  0  0  0  0  0
    2.4451   30.7800  -12.5235 O   0  0  0  0  0  0  0  0  0  0  0  0
  1  3  1  0
  1  4  1  0
  1  6  1  0
  2  6  1  0
  2  7  1  0
  2 10  2  0
  3  7  2  0
  3  9  1  0
  4  8  1  0
  5  8  1  0
  8  9  1  0
M  END
$$$$
