
     RDKit          3D

 25 27  0  0  0  0  0  0  0  0999 V2000
   29.3126   34.7093  103.4736 C   0  0  0  0  0  0  0  0  0  0  0  0
   24.1121   33.6494  107.5159 C   0  0  0  0  0  0  0  0  0  0  0  0
   32.0209   33.8663  101.8276 O   0  0  0  0  0  0  0  0  0  0  0  0
   25.6873   34.3768  104.1541 C   0  0  0  0  0  0  0  0  0  0  0  0
   25.1333   34.8633  102.9592 C   0  0  0  0  0  0  0  0  0  0  0  0
   30.2125   35.8497  103.9020 C   0  0  0  0  0  0  0  0  0  0  0  0
   29.9193   37.0679  103.7947 O   0  0  0  0  0  0  0  0  0  0  0  0
   24.9776   35.3579  101.9015 C   0  0  0  0  0  0  0  0  0  0  0  0
   23.3269   32.6678  106.4750 C   0  0  0  0  0  0  0  0  0  0  0  0
   31.5436   35.2933  104.5273 O   0  0  0  0  0  0  0  0  0  0  0  0
   24.9533   33.8963  105.2371 C   0  0  0  0  0  0  0  0  0  0  0  0
   23.6221   33.2636  104.9668 C   0  0  0  0  0  0  0  0  0  0  0  0
   27.9258   34.9995  103.5258 C   0  0  0  0  0  0  0  0  0  0  0  0
   25.3150   34.1315  106.6740 C   0  0  0  0  0  0  0  0  0  0  0  0
   26.8307   36.4463  101.7305 C   0  0  0  0  0  0  0  0  0  0  0  0
   24.8618   36.2512  100.8895 N   0  0  0  0  0  0  0  0  0  0  0  0
   27.0962   34.3965  104.4209 C   0  0  0  0  0  0  0  0  0  0  0  0
   23.2588   34.6587  107.9845 O   0  0  0  0  0  0  0  0  0  0  0  0
   24.2436   31.4766  106.2003 O   0  0  0  0  0  0  0  0  0  0  0  0
   29.9082   33.5120  103.0156 C   0  0  0  0  0  0  0  0  0  0  0  0
   31.3991   33.6224  102.9753 C   0  0  0  0  0  0  0  0  0  0  0  0
   31.9956   34.2018  104.1220 C   0  0  0  0  0  0  0  0  0  0  0  0
   27.4691   36.0030  102.6292 C   0  0  0  0  0  0  0  0  0  0  0  0
   23.9553   36.0469   99.8473 C   0  0  0  0  0  0  0  0  0  0  0  0
   26.1766   37.1159  100.9394 C   0  0  0  0  0  0  0  0  0  0  0  0
  1  6  1  0
  1 13  1  0
  1 20  1  0
  2  9  1  0
  2 14  1  0
  2 18  1  0
  3 21  1  0
  4  5  1  0
  4 11  1  0
  4 17  2  3
  5  8  3  0
  6  7  2  0
  6 10  1  0
  8 16  1  0
  9 12  1  0
  9 19  1  0
 10 22  1  0
 11 12  1  0
 11 14  1  0
 13 17  1  0
 13 23  1  0
 15 23  3  0
 15 25  1  0
 16 24  1  0
 16 25  1  0
 20 21  1  0
 21 22  1  0
M  END
$$$$
