
     RDKit          3D

 31 34  0  0  0  0  0  0  0  0999 V2000
   25.4036   34.7615  103.3881 C   0  0  0  0  0  0  0  0  0  0  0  0
   26.5614   35.0252  105.3548 C   0  0  0  0  0  0  0  0  0  0  0  0
   29.9020   33.0493  102.9399 C   0  0  0  0  0  0  0  0  0  0  0  0
   28.6921   33.4351  103.2222 C   0  0  0  0  0  0  0  0  0  0  0  0
   31.1399   33.8024  103.2368 C   0  0  0  0  0  0  0  0  0  0  0  0
   30.0072   37.1010  103.9100 O   0  0  0  0  0  0  0  0  0  0  0  0
   28.0468   34.5237  103.5232 C   0  0  0  0  0  0  0  0  0  0  0  0
   22.4204   33.5979  105.5135 C   0  0  0  0  0  0  0  0  0  0  0  0
   32.0135   33.8678  101.9266 O   0  0  0  0  0  0  0  0  0  0  0  0
   22.8928   34.1482  107.0443 C   0  0  0  0  0  0  0  0  0  0  0  0
   25.4515   34.4958  105.8678 C   0  0  0  0  0  0  0  0  0  0  0  0
   24.5705   34.2722  104.5735 C   0  0  0  0  0  0  0  0  0  0  0  0
   23.8708   32.1323  103.9072 C   0  0  0  0  0  0  0  0  0  0  0  0
   30.8674   35.1884  103.5018 N   0  0  0  0  0  0  0  0  0  0  0  0
   23.6159   36.3149   99.2070 F   0  0  0  0  0  0  0  0  0  0  0  0
   29.9771   36.0971  103.7068 C   0  0  0  0  0  0  0  0  0  0  0  0
   23.5320   33.4559  104.6480 N   0  0  0  0  0  0  0  0  0  0  0  0
   25.4542   34.0462  107.2908 C   0  0  0  0  0  0  0  0  0  0  0  0
   26.3686   33.4258  107.5419 O   0  0  0  0  0  0  0  0  0  0  0  0
   25.1406   35.3887  102.1631 C   0  0  0  0  0  0  0  0  0  0  0  0
   25.3717   36.9274  100.6607 N   0  0  0  0  0  0  0  0  0  0  0  0
   25.9447   36.4429  101.6951 N   0  0  0  0  0  0  0  0  0  0  0  0
   32.0891   33.3011  104.0860 O   0  0  0  0  0  0  0  0  0  0  0  0
   26.7241   34.8255  104.0133 C   0  0  0  0  0  0  0  0  0  0  0  0
   24.3867   34.2166  109.3202 O   0  0  0  0  0  0  0  0  0  0  0  0
   24.4512   35.2469  101.0628 C   0  0  0  0  0  0  0  0  0  0  0  0
   24.1975   33.9868  107.9973 C   0  0  0  0  0  0  0  0  0  0  0  0
   32.4175   33.9048  105.2825 C   0  0  0  0  0  0  0  0  0  0  0  0
   24.3311   36.1254  100.2049 C   0  0  0  0  0  0  0  0  0  0  0  0
   21.4858   32.3018  105.3987 C   0  0  0  0  0  0  0  0  0  0  0  0
   28.8508   35.5711  103.7120 C   0  0  0  0  0  0  0  0  0  0  0  0
  1 12  1  0
  1 20  1  0
  1 24  1  0
  2 11  1  0
  2 24  1  0
  3  4  1  0
  3  5  1  0
  4  7  1  0
  5  9  1  0
  5 14  1  0
  5 23  1  0
  6 16  2  0
  7 24  1  0
  7 31  2  0
  8 10  1  0
  8 17  1  0
  8 30  1  0
 10 27  1  0
 11 12  2  0
 11 18  1  0
 12 17  1  0
 13 17  1  0
 14 16  1  0
 15 29  1  0
 16 31  1  0
 18 19  2  0
 18 27  1  0
 20 22  1  0
 20 26  1  0
 21 22  1  0
 21 29  1  0
 23 28  1  0
 25 27  1  0
 26 29  1  0
M  END
$$$$
