
     RDKit          3D

 31 34  0  0  0  0  0  0  0  0999 V2000
   31.5897   33.5921  103.0676 C   0  0  0  0  0  0  0  0  0  0  0  0
   27.1997   34.5669  105.2987 C   0  0  0  0  0  0  0  0  0  0  0  0
   26.1534   34.5527  104.5577 C   0  0  0  0  0  0  0  0  0  0  0  0
   24.3278   35.9690  100.6092 C   0  0  0  0  0  0  0  0  0  0  0  0
   25.2156   37.1315  100.7178 C   0  0  0  0  0  0  0  0  0  0  0  0
   23.8104   33.2542  104.8039 N   0  0  0  0  0  0  0  0  0  0  0  0
   22.8305   33.4983  107.2011 C   0  0  0  0  0  0  0  0  0  0  0  0
   26.2156   36.8231  101.4414 C   0  0  0  0  0  0  0  0  0  0  0  0
   27.8877   35.7239  103.1471 C   0  0  0  0  0  0  0  0  0  0  0  0
   24.1243   33.9692  107.8169 C   0  0  0  0  0  0  0  0  0  0  0  0
   24.9885   33.8557  105.3795 N   0  0  0  0  0  0  0  0  0  0  0  0
   32.2305   33.8797  101.8667 O   0  0  0  0  0  0  0  0  0  0  0  0
   24.6865   35.1782  101.7390 C   0  0  0  0  0  0  0  0  0  0  0  0
   30.2681   32.8259  102.7754 C   0  0  0  0  0  0  0  0  0  0  0  0
   20.6297   32.6955  106.8153 C   0  0  0  0  0  0  0  0  0  0  0  0
   30.3356   36.9003  103.7678 O   0  0  0  0  0  0  0  0  0  0  0  0
   32.9146   33.9274  105.2303 O   0  0  0  0  0  0  0  0  0  0  0  0
   26.6083   35.2925  103.3104 C   0  0  0  0  0  0  0  0  0  0  0  0
   25.7891   35.7482  102.2754 C   0  0  0  0  0  0  0  0  0  0  0  0
   26.3224   33.4109  107.6841 O   0  0  0  0  0  0  0  0  0  0  0  0
   28.4756   34.4466  104.9770 C   0  0  0  0  0  0  0  0  0  0  0  0
   30.2848   35.7905  103.7864 C   0  0  0  0  0  0  0  0  0  0  0  0
   25.2762   33.8476  106.8811 C   0  0  0  0  0  0  0  0  0  0  0  0
   31.3423   34.7834  103.8586 N   0  0  0  0  0  0  0  0  0  0  0  0
   31.9802   34.5493  105.1764 C   0  0  0  0  0  0  0  0  0  0  0  0
   24.4904   34.2813  109.1248 O   0  0  0  0  0  0  0  0  0  0  0  0
   21.6348   33.0843  107.8574 O   0  0  0  0  0  0  0  0  0  0  0  0
   22.7381   32.9976  105.7847 C   0  0  0  0  0  0  0  0  0  0  0  0
   23.2276   35.8377   99.8069 C   0  0  0  0  0  0  0  0  0  0  0  0
   28.8819   35.3146  104.0194 C   0  0  0  0  0  0  0  0  0  0  0  0
   21.4743   32.3182  105.5508 C   0  0  0  0  0  0  0  0  0  0  0  0
  1 12  1  0
  1 14  1  0
  1 24  1  0
  2  3  1  0
  2 21  1  0
  3 11  1  0
  3 18  2  0
  4  5  1  0
  4 13  1  0
  4 29  2  0
  5  8  1  0
  6 11  1  0
  6 28  1  0
  7 10  1  0
  7 27  1  0
  7 28  1  0
  8 19  1  0
  9 18  1  0
  9 30  2  0
 10 23  1  0
 10 26  1  0
 11 23  1  0
 13 19  1  0
 15 27  1  0
 15 31  1  0
 16 22  2  0
 17 25  2  0
 18 19  1  0
 20 23  2  0
 21 30  1  0
 22 24  1  0
 22 30  1  0
 24 25  1  0
 28 31  1  0
M  END
$$$$
