
     RDKit          3D

 32 34  0  0  0  0  0  0  0  0999 V2000
   29.5504   34.8471  104.4207 C   0  0  0  0  0  0  0  0  0  0  0  0
   24.0646   35.8439  100.0437 C   0  0  0  0  0  0  0  0  0  0  0  0
   23.5234   36.2651   99.0834 N   0  0  0  0  0  0  0  0  0  0  0  0
   30.0937   36.0769  103.7485 C   0  0  0  0  0  0  0  0  0  0  0  0
   31.7257   33.9421  104.2977 C   0  0  0  0  0  0  0  0  0  0  0  0
   26.2098   34.6185  105.5968 C   0  0  0  0  0  0  0  0  0  0  0  0
   23.7015   33.1188  105.5347 C   0  0  0  0  0  0  0  0  0  0  0  0
   22.5513   31.1687  103.8940 C   0  0  0  0  0  0  0  0  0  0  0  0
   24.4139   32.4997  104.4628 C   0  0  0  0  0  0  0  0  0  0  0  0
   25.4820   34.3151  106.8267 C   0  0  0  0  0  0  0  0  0  0  0  0
   25.2137   37.6472  100.8078 F   0  0  0  0  0  0  0  0  0  0  0  0
   25.2187   36.3496  100.6752 C   0  0  0  0  0  0  0  0  0  0  0  0
   32.1779   33.9157  101.8319 O   0  0  0  0  0  0  0  0  0  0  0  0
   25.9042   34.3647  107.9935 O   0  0  0  0  0  0  0  0  0  0  0  0
   29.4337   37.0127  103.6613 O   0  0  0  0  0  0  0  0  0  0  0  0
   25.0029   35.3724  103.0777 C   0  0  0  0  0  0  0  0  0  0  0  0
   28.1462   34.8705  104.4928 N   0  0  0  0  0  0  0  0  0  0  0  0
   26.2821   35.9366   99.8298 F   0  0  0  0  0  0  0  0  0  0  0  0
   30.6642   34.3604  105.2032 O   0  0  0  0  0  0  0  0  0  0  0  0
   31.3083   33.7669  102.8525 C   0  0  0  0  0  0  0  0  0  0  0  0
   32.7296   33.7752  104.8169 O   0  0  0  0  0  0  0  0  0  0  0  0
   21.8135   31.7571  104.9148 C   0  0  0  0  0  0  0  0  0  0  0  0
   25.6448   35.7033  101.9181 C   0  0  0  0  0  0  0  0  0  0  0  0
   22.3622   32.7404  105.7084 C   0  0  0  0  0  0  0  0  0  0  0  0
   25.9213   35.0323  104.1631 C   0  0  0  0  0  0  0  0  0  0  0  0
   27.5209   34.3500  105.4505 C   0  0  0  0  0  0  0  0  0  0  0  0
   30.2313   32.8307  102.6756 C   0  0  0  0  0  0  0  0  0  0  0  0
   24.1062   34.0966  106.5613 N   0  0  0  0  0  0  0  0  0  0  0  0
   28.9482   32.9141  103.1271 F   0  0  0  0  0  0  0  0  0  0  0  0
   26.9876   35.8048  102.3223 N   0  0  0  0  0  0  0  0  0  0  0  0
   23.8628   31.5686  103.8168 C   0  0  0  0  0  0  0  0  0  0  0  0
   27.1932   35.3037  103.5796 C   0  0  0  0  0  0  0  0  0  0  0  0
  1  4  1  0
  1 17  1  0
  1 19  1  0
  2  3  2  0
  2 12  1  0
  4 15  2  0
  5 19  1  0
  5 20  1  0
  5 21  2  0
  6 10  1  0
  6 25  1  0
  6 26  1  0
  7  9  1  0
  7 24  2  0
  7 28  1  0
  8 22  2  0
  8 31  1  0
  9 31  2  0
 10 14  2  0
 10 28  1  0
 11 12  1  0
 12 18  1  0
 12 23  1  0
 13 20  1  0
 16 23  1  0
 16 25  1  0
 17 26  1  0
 17 32  1  0
 20 27  1  0
 22 24  1  0
 23 30  1  0
 25 32  2  0
 27 29  1  0
 30 32  1  0
M  END
$$$$
