
     RDKit          3D

 25 25  0  0  0  0  0  0  0  0999 V2000
   26.1739   35.3256  102.7595 C   0  0  0  0  0  0  0  0  0  0  0  0
   28.6840   34.8225  103.4103 C   0  0  0  0  0  0  0  0  0  0  0  0
   26.3648   35.3960   99.1185 O   0  0  0  0  0  0  0  0  0  0  0  0
   26.1710   34.3343  107.8869 O   0  0  0  0  0  0  0  0  0  0  0  0
   29.2495   36.0864  103.5719 N   0  0  0  0  0  0  0  0  0  0  0  0
   24.5405   36.5535  101.6304 O   0  0  0  0  0  0  0  0  0  0  0  0
   29.6925   33.8567  103.2066 C   0  0  0  0  0  0  0  0  0  0  0  0
   26.8027   34.8676   98.0297 C   0  0  0  0  0  0  0  0  0  0  0  0
   25.6878   34.1959  105.7555 N   0  0  0  0  0  0  0  0  0  0  0  0
   27.7689   34.3465   97.4808 O   0  0  0  0  0  0  0  0  0  0  0  0
   25.7928   35.9866  101.3806 C   0  0  0  0  0  0  0  0  0  0  0  0
   31.9135   33.9121  102.2464 O   0  0  0  0  0  0  0  0  0  0  0  0
   26.9555   34.5457  105.2588 C   0  0  0  0  0  0  0  0  0  0  0  0
   31.0248   34.5205  103.5043 N   0  0  0  0  0  0  0  0  0  0  0  0
   29.6960   32.7258  102.7436 C   0  0  0  0  0  0  0  0  0  0  0  0
   24.6529   34.0038  104.5830 C   0  0  0  0  0  0  0  0  0  0  0  0
   27.1870   34.5419  103.8407 C   0  0  0  0  0  0  0  0  0  0  0  0
   23.6470   36.3651   98.9144 O   0  0  0  0  0  0  0  0  0  0  0  0
   30.5285   35.9101  103.6905 C   0  0  0  0  0  0  0  0  0  0  0  0
   24.0642   36.0289  100.0039 C   0  0  0  0  0  0  0  0  0  0  0  0
   25.4200   34.0020  107.1251 C   0  0  0  0  0  0  0  0  0  0  0  0
   25.5187   35.8890  100.0566 C   0  0  0  0  0  0  0  0  0  0  0  0
   31.9192   33.9960  104.7313 C   0  0  0  0  0  0  0  0  0  0  0  0
   24.8825   35.1018  103.4334 C   0  0  0  0  0  0  0  0  0  0  0  0
   24.0304   33.7805  107.4936 C   0  0  0  0  0  0  0  0  0  0  0  0
  1 11  1  0
  1 17  1  0
  1 24  1  0
  2  5  1  0
  2  7  1  0
  2 17  1  0
  3  8  1  0
  3 22  1  0
  4 21  2  0
  5 19  1  0
  6 11  1  0
  7 15  2  0
  8 10  2  0
  9 13  1  0
  9 16  1  0
  9 21  1  0
 11 22  1  0
 12 14  1  0
 13 17  1  0
 14 19  1  0
 14 23  1  0
 16 24  1  0
 18 20  1  0
 20 22  1  0
 21 25  1  0
M  END
$$$$
