
     RDKit          3D

 35 37  0  0  0  0  0  0  0  0999 V2000
   30.2017   35.6350  103.8418 C   0  0  0  0  0  0  0  0  0  0  0  0
   21.3120   33.4538  109.3416 O   0  0  0  0  0  0  0  0  0  0  0  0
   27.6026   35.0488  104.0282 C   0  0  0  0  0  0  0  0  0  0  0  0
   21.3035   34.8112  107.3129 C   0  0  0  0  0  0  0  0  0  0  0  0
   32.3304   33.5201  102.9740 C   0  0  0  0  0  0  0  0  0  0  0  0
   24.7725   34.2323  106.0922 C   0  0  0  0  0  0  0  0  0  0  0  0
   23.6152   36.2673   99.0189 N   0  0  0  0  0  0  0  0  0  0  0  0
   30.6973   34.3068  105.8848 O   0  0  0  0  0  0  0  0  0  0  0  0
   32.1006   34.2828  105.3416 C   0  0  0  0  0  0  0  0  0  0  0  0
   28.9841   34.9307  104.4108 C   0  0  0  0  0  0  0  0  0  0  0  0
   21.8564   32.3200  106.9476 C   0  0  0  0  0  0  0  0  0  0  0  0
   23.6126   34.0268  108.2827 C   0  0  0  0  0  0  0  0  0  0  0  0
   31.1460   33.2746  103.5556 C   0  0  0  0  0  0  0  0  0  0  0  0
   22.1740   35.4328  106.3172 O   0  0  0  0  0  0  0  0  0  0  0  0
   27.0439   35.4036  102.7248 C   0  0  0  0  0  0  0  0  0  0  0  0
   24.8864   36.4232  100.8215 C   0  0  0  0  0  0  0  0  0  0  0  0
   31.4707   34.7290  103.9885 C   0  0  0  0  0  0  0  0  0  0  0  0
   29.3598   34.3053  105.4766 C   0  0  0  0  0  0  0  0  0  0  0  0
   26.7822   34.7921  104.9952 C   0  0  0  0  0  0  0  0  0  0  0  0
   23.8480   35.9279   99.8552 C   0  0  0  0  0  0  0  0  0  0  0  0
   22.1200   34.3910  108.5879 C   0  0  0  0  0  0  0  0  0  0  0  0
   24.2385   34.6599  104.7826 C   0  0  0  0  0  0  0  0  0  0  0  0
   25.3658   37.5176  100.9106 O   0  0  0  0  0  0  0  0  0  0  0  0
   30.1805   36.7730  103.5858 O   0  0  0  0  0  0  0  0  0  0  0  0
   26.1366   34.4863  106.1838 C   0  0  0  0  0  0  0  0  0  0  0  0
   25.5774   35.2386  102.7450 C   0  0  0  0  0  0  0  0  0  0  0  0
   20.8519   33.4563  106.6105 C   0  0  0  0  0  0  0  0  0  0  0  0
   29.9931   32.8417  102.8282 C   0  0  0  0  0  0  0  0  0  0  0  0
   24.8779   35.6031  101.8128 N   0  0  0  0  0  0  0  0  0  0  0  0
   24.4639   34.1982  109.1918 O   0  0  0  0  0  0  0  0  0  0  0  0
   25.0245   34.9782  103.8052 C   0  0  0  0  0  0  0  0  0  0  0  0
   23.2691   32.4324  106.3624 C   0  0  0  0  0  0  0  0  0  0  0  0
   33.1705   33.9123  105.2206 O   0  0  0  0  0  0  0  0  0  0  0  0
   32.3401   33.8990  101.7469 N   0  0  0  0  0  0  0  0  0  0  0  0
   24.0588   33.5250  107.0666 N   0  0  0  0  0  0  0  0  0  0  0  0
  1 10  1  0
  1 17  1  0
  1 24  2  0
  2 21  1  0
  3 10  1  0
  3 15  1  0
  3 19  2  0
  4 14  1  0
  4 21  1  0
  4 27  1  0
  5 13  1  0
  5 34  2  0
  6 22  1  0
  6 25  1  0
  6 35  1  0
  7 20  2  0
  8  9  1  0
  8 18  1  0
  9 17  1  0
  9 33  2  0
 10 18  2  0
 11 27  1  0
 11 32  1  0
 12 21  1  0
 12 30  2  0
 12 35  1  0
 13 17  1  0
 13 28  1  0
 15 26  1  0
 16 20  1  0
 16 23  2  0
 16 29  1  0
 19 25  2  0
 22 31  2  0
 26 29  1  0
 26 31  2  0
 32 35  1  0
M  END
$$$$
