
     RDKit          3D

 33 36  0  0  0  0  0  0  0  0999 V2000
   26.5083   34.0269  103.3242 C   0  0  0  0  0  0  0  0  0  0  0  0
   27.9463   34.0974  103.3799 N   0  0  0  0  0  0  0  0  0  0  0  0
   25.0946   37.5588  100.9582 O   0  0  0  0  0  0  0  0  0  0  0  0
   22.5736   31.0783  104.3847 C   0  0  0  0  0  0  0  0  0  0  0  0
   26.1211   35.2390  102.5716 C   0  0  0  0  0  0  0  0  0  0  0  0
   25.0012   36.2891  100.8054 C   0  0  0  0  0  0  0  0  0  0  0  0
   24.9547   35.3500  101.9536 O   0  0  0  0  0  0  0  0  0  0  0  0
   31.5210   32.7768  102.9109 C   0  0  0  0  0  0  0  0  0  0  0  0
   28.2032   35.5412  103.1834 C   0  0  0  0  0  0  0  0  0  0  0  0
   30.3433   33.3329  103.3898 C   0  0  0  0  0  0  0  0  0  0  0  0
   23.9203   35.8485   99.9405 C   0  0  0  0  0  0  0  0  0  0  0  0
   32.1116   33.9256  101.9344 C   0  0  0  0  0  0  0  0  0  0  0  0
   29.4271   36.2711  103.5288 C   0  0  0  0  0  0  0  0  0  0  0  0
   27.1153   36.1643  102.6448 N   0  0  0  0  0  0  0  0  0  0  0  0
   30.6807   34.4496  104.3348 C   0  0  0  0  0  0  0  0  0  0  0  0
   22.3587   33.2677  107.3896 C   0  0  0  0  0  0  0  0  0  0  0  0
   29.4526   37.2174  103.9097 O   0  0  0  0  0  0  0  0  0  0  0  0
   31.8496   34.3201  105.2117 C   0  0  0  0  0  0  0  0  0  0  0  0
   24.6036   34.0379  107.6682 C   0  0  0  0  0  0  0  0  0  0  0  0
   29.0355   33.2287  103.0755 C   0  0  0  0  0  0  0  0  0  0  0  0
   23.9296   33.1345  105.6183 C   0  0  0  0  0  0  0  0  0  0  0  0
   23.3305   33.9069  108.1766 N   0  0  0  0  0  0  0  0  0  0  0  0
   30.5724   35.5746  103.4681 N   0  0  0  0  0  0  0  0  0  0  0  0
   24.8554   33.7169  106.4056 N   0  0  0  0  0  0  0  0  0  0  0  0
   23.7969   31.5920  103.8443 C   0  0  0  0  0  0  0  0  0  0  0  0
   23.4969   36.3352   99.0099 O   0  0  0  0  0  0  0  0  0  0  0  0
   25.5276   34.5318  108.1618 O   0  0  0  0  0  0  0  0  0  0  0  0
   24.2180   32.9643  104.1410 C   0  0  0  0  0  0  0  0  0  0  0  0
   32.9078   33.8575  105.0087 O   0  0  0  0  0  0  0  0  0  0  0  0
   22.6653   32.8289  106.1343 C   0  0  0  0  0  0  0  0  0  0  0  0
   26.1443   35.9982  100.1769 F   0  0  0  0  0  0  0  0  0  0  0  0
   21.7383   32.1087  105.2320 C   0  0  0  0  0  0  0  0  0  0  0  0
   25.6167   33.0418  103.5509 C   0  0  0  0  0  0  0  0  0  0  0  0
  1  2  1  0
  1  5  1  0
  1 33  1  0
  2  9  1  0
  2 20  1  0
  3  6  1  0
  4 25  1  0
  4 32  1  0
  5  7  1  0
  5 14  1  0
  6  7  1  0
  6 11  1  0
  6 31  1  0
  8 10  1  0
  8 12  1  0
  9 13  1  0
  9 14  2  0
 10 15  1  0
 10 20  2  0
 11 26  2  0
 13 17  2  0
 13 23  1  0
 15 18  1  0
 15 23  1  0
 16 22  2  0
 16 30  1  0
 18 29  2  0
 19 22  1  0
 19 24  1  0
 19 27  2  0
 21 24  2  0
 21 28  1  0
 21 30  1  0
 25 28  1  0
 28 33  1  0
 30 32  1  0
M  END
$$$$
