
     RDKit          3D

 26 27  0  0  0  0  0  0  0  0999 V2000
   -6.3651   -2.5887  -31.8053 C   0  0  0  0  0  0  0  0  0  0  0  0
   -8.9199    4.2462  -29.4673 C   0  0  0  0  0  0  0  0  0  0  0  0
   -8.1604    7.1061  -27.1091 C   0  0  0  0  0  0  0  0  0  0  0  0
   -6.3063    3.7944  -30.1914 O   0  0  0  0  0  0  0  0  0  0  0  0
   -7.1919    2.3812  -32.2380 P   0  0  0  0  0  0  0  0  0  0  0  0
   -5.7995    1.8697  -32.2905 O   0  0  0  0  0  0  0  0  0  0  0  0
   -9.8176    4.7787  -27.1441 O   0  0  0  0  0  0  0  0  0  0  0  0
   -3.4678   -3.9485  -30.0706 O   0  0  0  0  0  0  0  0  0  0  0  0
   -4.6017   -3.9793  -30.5924 C   0  0  0  0  0  0  0  0  0  0  0  0
   -7.5928   -0.0737  -32.6022 C   0  0  0  0  0  0  0  0  0  0  0  0
  -10.7744    4.1217  -28.0901 C   0  0  0  0  0  0  0  0  0  0  0  0
   -5.2012   -5.0763  -30.8352 O   0  0  0  0  0  0  0  0  0  0  0  0
   -9.0125    5.9206  -27.6281 C   0  0  0  0  0  0  0  0  0  0  0  0
   -8.6316    4.0970  -30.9751 C   0  0  0  0  0  0  0  0  0  0  0  0
   -4.7896   -1.6507  -30.1685 O   0  0  0  0  0  0  0  0  0  0  0  0
   -8.0925    1.0321  -31.9248 C   0  0  0  0  0  0  0  0  0  0  0  0
   -7.5428    3.2593  -33.4239 O   0  0  0  0  0  0  0  0  0  0  0  0
  -10.8474    3.5731  -30.6725 C   0  0  0  0  0  0  0  0  0  0  0  0
   -7.1978    3.5850  -31.0626 C   0  0  0  0  0  0  0  0  0  0  0  0
   -5.2666   -2.6439  -30.9277 C   0  0  0  0  0  0  0  0  0  0  0  0
  -10.4028    4.4378  -29.4859 C   0  0  0  0  0  0  0  0  0  0  0  0
   -8.2628    5.4088  -28.8825 C   0  0  0  0  0  0  0  0  0  0  0  0
  -11.6206    2.4727  -30.1647 O   0  0  0  0  0  0  0  0  0  0  0  0
   -8.2011    6.4335  -29.7995 O   0  0  0  0  0  0  0  0  0  0  0  0
   -6.8505   -1.1609  -31.9165 C   0  0  0  0  0  0  0  0  0  0  0  0
   -9.6275    3.0793  -31.3501 O   0  0  0  0  0  0  0  0  0  0  0  0
  1 20  1  0
  1 25  1  0
  2 14  1  0
  2 21  1  0
  2 22  1  0
  3 13  1  0
  4 19  2  0
  5  6  1  0
  5 16  1  0
  5 17  1  0
  5 19  1  0
  7 11  1  0
  7 13  1  0
  8  9  2  0
  9 12  1  0
  9 20  1  0
 10 16  1  0
 10 25  1  0
 11 21  1  0
 13 22  1  0
 14 19  1  0
 14 26  1  0
 15 20  1  0
 18 21  1  0
 18 23  1  0
 18 26  1  0
 22 24  1  0
M  END
$$$$
