
     RDKit          3D

 11 10  0  0  0  0  0  0  0  0999 V2000
   -7.4742    2.5405  -31.8458 P   0  0  0  0  0  0  0  0  0  0  0  0
   -9.1136    5.3980  -27.7676 C   0  0  0  0  0  0  0  0  0  0  0  0
   -8.2074    4.6736  -30.0147 C   0  0  0  0  0  0  0  0  0  0  0  0
   -6.0770    1.8557  -31.9640 O   0  0  0  0  0  0  0  0  0  0  0  0
   -9.3838    4.7324  -29.1183 C   0  0  0  0  0  0  0  0  0  0  0  0
   -8.1323    5.8142  -30.7989 O   0  0  0  0  0  0  0  0  0  0  0  0
   -7.4531    3.7333  -32.8544 O   0  0  0  0  0  0  0  0  0  0  0  0
  -10.6402    4.2016  -29.1931 O   0  0  0  0  0  0  0  0  0  0  0  0
   -8.5572    1.5290  -32.2287 O   0  0  0  0  0  0  0  0  0  0  0  0
  -10.3775    5.1104  -26.8247 C   0  0  0  0  0  0  0  0  0  0  0  0
   -7.7242    3.2779  -30.2919 C   0  0  0  0  0  0  0  0  0  0  0  0
  1  4  1  0
  1  7  1  0
  1  9  1  0
  1 11  1  0
  2  5  1  0
  2 10  1  0
  3  5  1  0
  3  6  1  0
  3 11  1  0
  5  8  1  0
M  END
$$$$
