
     RDKit          3D

 20 20  0  0  0  0  0  0  0  0999 V2000
  -11.9568   -6.3154    5.7359 N   0  0  0  0  0  0  0  0  0  0  0  0
  -22.7775   -5.7255    4.9503 C   0  0  0  0  0  0  0  0  0  0  0  0
  -23.6523   -6.2669    5.9242 N   0  0  0  0  0  0  0  0  0  0  0  0
  -19.2575   -5.4821    4.0293 C   0  0  0  0  0  0  0  0  0  0  0  0
  -22.7254   -4.4112    5.1239 C   0  0  0  0  0  0  0  0  0  0  0  0
  -11.8050   -6.9740    3.5315 C   0  0  0  0  0  0  0  0  0  0  0  0
  -13.1365   -6.7831    3.3359 C   0  0  0  0  0  0  0  0  0  0  0  0
  -15.7844   -7.2932    4.9561 O   0  0  0  0  0  0  0  0  0  0  0  0
  -21.1573   -5.3391    3.4211 N   0  0  0  0  0  0  0  0  0  0  0  0
  -17.5290   -4.9804    4.2424 C   0  0  0  0  0  0  0  0  0  0  0  0
  -23.0463   -3.7484    6.2166 C   0  0  0  0  0  0  0  0  0  0  0  0
  -13.8515   -6.2075    4.3644 C   0  0  0  0  0  0  0  0  0  0  0  0
  -21.8709   -3.6150    4.2823 C   0  0  0  0  0  0  0  0  0  0  0  0
  -15.1881   -6.2825    4.3601 C   0  0  0  0  0  0  0  0  0  0  0  0
  -18.9136   -6.9834    3.9733 N   0  0  0  0  0  0  0  0  0  0  0  0
  -22.0840   -6.3455    3.8695 C   0  0  0  0  0  0  0  0  0  0  0  0
  -11.2782   -6.9023    4.7396 N   0  0  0  0  0  0  0  0  0  0  0  0
  -13.1749   -5.8527    5.4846 C   0  0  0  0  0  0  0  0  0  0  0  0
  -15.9767   -4.9603    4.3551 C   0  0  0  0  0  0  0  0  0  0  0  0
  -21.2181   -4.0663    3.2473 C   0  0  0  0  0  0  0  0  0  0  0  0
  1 17  1  0
  1 18  2  0
  2  3  1  0
  2  5  1  0
  2 16  1  0
  4 10  1  0
  4 15  1  0
  5 11  1  0
  5 13  2  0
  6  7  1  0
  6 17  1  0
  7 12  2  0
  8 14  1  0
  9 16  1  0
  9 20  1  0
 10 19  1  0
 12 14  1  0
 12 18  1  0
 13 20  1  0
 14 19  1  0
M  END
$$$$
