
     RDKit          3D

 13 13  0  0  0  0  0  0  0  0999 V2000
  -13.4988   -6.5847    4.2699 O   0  0  0  0  0  0  0  0  0  0  0  0
  -19.0706   -4.4977    3.8425 C   0  0  0  0  0  0  0  0  0  0  0  0
  -14.4638   -5.8041    3.7565 C   0  0  0  0  0  0  0  0  0  0  0  0
  -20.3276   -6.6312    2.7393 C   0  0  0  0  0  0  0  0  0  0  0  0
  -18.4030   -5.8429    3.9152 C   0  0  0  0  0  0  0  0  0  0  0  0
  -12.1770   -6.8069    6.1458 O   0  0  0  0  0  0  0  0  0  0  0  0
  -12.2880   -6.5449    4.8911 C   0  0  0  0  0  0  0  0  0  0  0  0
  -15.7688   -5.2913    4.2553 C   0  0  0  0  0  0  0  0  0  0  0  0
  -20.9436   -5.4073    2.7077 C   0  0  0  0  0  0  0  0  0  0  0  0
  -11.1824   -7.0551    3.9976 C   0  0  0  0  0  0  0  0  0  0  0  0
  -17.0747   -6.1285    4.4962 C   0  0  0  0  0  0  0  0  0  0  0  0
  -20.5615   -4.2936    3.0154 C   0  0  0  0  0  0  0  0  0  0  0  0
  -19.3205   -6.7869    3.3291 C   0  0  0  0  0  0  0  0  0  0  0  0
  1  3  1  0
  1  7  1  0
  2  5  2  0
  2 12  1  0
  3  8  1  0
  4  9  1  0
  4 13  2  0
  5 11  1  0
  5 13  1  0
  6  7  2  0
  7 10  1  0
  8 11  1  0
  9 12  1  0
M  END
$$$$
