
     RDKit          3D

 10  9  0  0  0  0  0  0  0  0999 V2000
  -18.7463   -4.6872    4.0508 O   0  0  0  0  0  0  0  0  0  0  0  0
  -12.2460   -6.7704    6.1862 O   0  0  0  0  0  0  0  0  0  0  0  0
  -11.6214   -6.9176    4.0128 O   0  0  0  0  0  0  0  0  0  0  0  0
  -19.8554   -6.7844    3.1782 C   0  0  0  0  0  0  0  0  0  0  0  0
  -13.9800   -6.5719    4.4696 C   0  0  0  0  0  0  0  0  0  0  0  0
  -16.6093   -5.8619    4.4890 C   0  0  0  0  0  0  0  0  0  0  0  0
  -18.7127   -5.8116    3.3892 C   0  0  0  0  0  0  0  0  0  0  0  0
  -17.3288   -6.1494    3.0831 O   0  0  0  0  0  0  0  0  0  0  0  0
  -15.0726   -5.4701    4.7204 C   0  0  0  0  0  0  0  0  0  0  0  0
  -12.5910   -6.5225    4.9424 C   0  0  0  0  0  0  0  0  0  0  0  0
  1  7  2  0
  2 10  2  0
  3 10  1  0
  4  7  1  0
  5  9  2  3
  5 10  1  0
  6  8  1  0
  6  9  1  0
  7  8  1  0
M  END
$$$$
