
     RDKit          3D

 11 11  0  0  0  0  0  0  0  0999 V2000
    0.9569   32.5326  -10.0173 O   0  0  0  0  0  0  0  0  0  0  0  0
    0.7729   29.0967  -13.3448 C   0  0  0  0  0  0  0  0  0  0  0  0
    1.0678   30.5968  -11.7725 C   0  0  0  0  0  0  0  0  0  0  0  0
    0.1005   31.3433  -12.6906 C   0  0  0  0  0  0  0  0  0  0  0  0
    0.6212   33.3080  -10.8976 C   0  0  0  0  0  0  0  0  0  0  0  0
    1.9123   29.9127  -12.8654 O   0  0  0  0  0  0  0  0  0  0  0  0
    0.3664   35.6441  -10.3198 O   0  0  0  0  0  0  0  0  0  0  0  0
   -0.1838   30.2692  -13.6453 O   0  0  0  0  0  0  0  0  0  0  0  0
   -0.7691   35.2302  -11.1259 C   0  0  0  0  0  0  0  0  0  0  0  0
   -0.4445   33.8249  -11.7707 C   0  0  0  0  0  0  0  0  0  0  0  0
   -0.8167   32.5268  -12.6554 C   0  0  0  0  0  0  0  0  0  0  0  0
  1  5  2  0
  2  6  1  0
  2  8  1  0
  3  4  1  0
  3  6  1  0
  4  8  1  0
  4 11  1  0
  5 10  1  0
  7  9  1  0
  9 10  1  0
 10 11  1  0
M  END
$$$$
