
     RDKit          3D

 11 11  0  0  0  0  0  0  0  0999 V2000
    0.9696   28.4839  -11.4659 N   0  0  0  0  0  0  0  0  0  0  0  0
    0.0517   33.2201  -11.7918 C   0  0  0  0  0  0  0  0  0  0  0  0
    0.7494   32.0526  -11.1095 C   0  0  0  0  0  0  0  0  0  0  0  0
   -0.9712   31.2214  -12.5583 N   0  0  0  0  0  0  0  0  0  0  0  0
    0.3371   34.6540  -11.7422 C   0  0  0  0  0  0  0  0  0  0  0  0
    0.0478   30.7520  -11.5715 C   0  0  0  0  0  0  0  0  0  0  0  0
   -1.1002   32.7180  -12.4951 C   0  0  0  0  0  0  0  0  0  0  0  0
   -0.0726   35.3638  -10.6527 O   0  0  0  0  0  0  0  0  0  0  0  0
    0.9363   29.6476  -12.1106 C   0  0  0  0  0  0  0  0  0  0  0  0
    1.8709   29.9508  -12.9541 O   0  0  0  0  0  0  0  0  0  0  0  0
    0.7844   32.3453   -9.7479 O   0  0  0  0  0  0  0  0  0  0  0  0
  1  9  1  0
  2  3  1  0
  2  5  1  0
  2  7  1  0
  3  6  1  0
  3 11  1  0
  4  6  1  0
  4  7  1  0
  5  8  1  0
  6  9  1  0
  9 10  2  0
M  END
$$$$
