
     RDKit          3D

  9  8  0  0  0  0  0  0  0  0999 V2000
    1.4600   29.1693  -13.4735 O   0  0  0  0  0  0  0  0  0  0  0  0
   -0.0944   32.3669  -12.5049 N   0  0  0  0  0  0  0  0  0  0  0  0
    2.0234   30.8111  -11.9141 O   0  0  0  0  0  0  0  0  0  0  0  0
   -0.0920   30.9433  -12.9390 C   0  0  0  0  0  0  0  0  0  0  0  0
    0.5550   34.8464  -12.2729 O   0  0  0  0  0  0  0  0  0  0  0  0
    0.2550   32.8424  -11.1282 C   0  0  0  0  0  0  0  0  0  0  0  0
    0.4767   35.0163  -10.1208 O   0  0  0  0  0  0  0  0  0  0  0  0
    0.4202   34.3634  -11.1408 C   0  0  0  0  0  0  0  0  0  0  0  0
    1.2237   30.2447  -12.7436 C   0  0  0  0  0  0  0  0  0  0  0  0
  1  9  2  0
  2  4  1  0
  2  6  1  0
  3  9  1  0
  4  9  1  0
  5  8  2  0
  6  8  1  0
  7  8  1  0
M  END
$$$$
