
     RDKit          3D

  9  8  0  0  0  0  0  0  0  0999 V2000
   -0.3931   36.0186  -11.1870 O   0  0  0  0  0  0  0  0  0  0  0  0
    1.3498   34.0540  -11.6595 O   0  0  0  0  0  0  0  0  0  0  0  0
    0.2810   33.3286  -11.6883 C   0  0  0  0  0  0  0  0  0  0  0  0
    0.4808   31.9774  -12.3458 C   0  0  0  0  0  0  0  0  0  0  0  0
   -1.0285   33.9319  -12.1900 C   0  0  0  0  0  0  0  0  0  0  0  0
    1.5810   31.0827  -11.8664 C   0  0  0  0  0  0  0  0  0  0  0  0
    2.8073   31.4976  -12.0258 O   0  0  0  0  0  0  0  0  0  0  0  0
    1.4063   29.7240  -11.9858 N   0  0  0  0  0  0  0  0  0  0  0  0
   -1.0009   35.4438  -12.3077 C   0  0  0  0  0  0  0  0  0  0  0  0
  1  9  1  0
  2  3  1  0
  3  4  1  0
  3  5  1  0
  4  6  1  0
  5  9  1  0
  6  7  2  0
  6  8  1  0
M  END
$$$$
