
     RDKit          3D

 11 11  0  0  0  0  0  0  0  0999 V2000
   -7.1203  -65.1741   16.8345 O   0  0  0  0  0  0  0  0  0  0  0  0
   -7.7034  -62.6354   16.0032 C   0  0  0  0  0  0  0  0  0  0  0  0
   -9.6644  -64.2390   16.8239 O   0  0  0  0  0  0  0  0  0  0  0  0
   -7.6716  -61.0952   15.8020 C   0  0  0  0  0  0  0  0  0  0  0  0
   -6.4080  -60.6182   16.1538 O   0  0  0  0  0  0  0  0  0  0  0  0
   -7.6409  -61.8299   18.3283 O   0  0  0  0  0  0  0  0  0  0  0  0
   -9.8404  -61.8096   16.7781 C   0  0  0  0  0  0  0  0  0  0  0  0
   -9.1630  -63.0371   16.2521 C   0  0  0  0  0  0  0  0  0  0  0  0
   -7.3215  -64.2298   17.9064 C   0  0  0  0  0  0  0  0  0  0  0  0
   -7.0687  -62.7481   17.4527 C   0  0  0  0  0  0  0  0  0  0  0  0
   -8.9689  -60.5959   16.3985 C   0  0  0  0  0  0  0  0  0  0  0  0
  1  9  1  0
  2  4  1  0
  2  8  1  0
  2 10  1  0
  3  8  1  0
  4  5  1  0
  4 11  1  0
  6 10  1  0
  7  8  1  0
  7 11  1  0
  9 10  1  0
M  END
$$$$
