
     RDKit          3D

 12 12  0  0  0  0  0  0  0  0999 V2000
   -6.7192  -62.0955   18.6719 O   0  0  0  0  0  0  0  0  0  0  0  0
   -7.4567  -60.7720   15.3505 O   0  0  0  0  0  0  0  0  0  0  0  0
   -7.4650  -63.2778   16.4661 C   0  0  0  0  0  0  0  0  0  0  0  0
   -8.3907  -63.8030   18.6797 C   0  0  0  0  0  0  0  0  0  0  0  0
   -6.4495  -59.8740   17.3636 O   0  0  0  0  0  0  0  0  0  0  0  0
   -7.0427  -64.3254   20.5857 O   0  0  0  0  0  0  0  0  0  0  0  0
   -7.0862  -62.0715   17.2954 C   0  0  0  0  0  0  0  0  0  0  0  0
   -7.0944  -63.3874   19.4419 C   0  0  0  0  0  0  0  0  0  0  0  0
   -8.2274  -63.4320   15.2886 O   0  0  0  0  0  0  0  0  0  0  0  0
   -9.4211  -63.8787   19.5277 O   0  0  0  0  0  0  0  0  0  0  0  0
   -6.9184  -60.7874   16.5531 C   0  0  0  0  0  0  0  0  0  0  0  0
   -8.0233  -64.3420   17.4021 N   0  0  0  0  0  0  0  0  0  0  0  0
  1  7  1  0
  1  8  1  0
  2 11  2  0
  3  7  1  0
  3  9  1  0
  3 12  1  0
  4  8  1  0
  4 10  2  0
  4 12  1  0
  5 11  1  0
  6  8  2  0
  7 11  1  0
M  END
$$$$
