
     RDKit          3D

 11 11  0  0  0  0  0  0  0  0999 V2000
   -6.8273  -61.9967   17.8019 C   0  0  0  0  0  0  0  0  0  0  0  0
   -7.9943  -64.2904   17.2323 C   0  0  0  0  0  0  0  0  0  0  0  0
   -6.9951  -65.2634   16.8778 O   0  0  0  0  0  0  0  0  0  0  0  0
   -8.0759  -62.2733   15.5488 C   0  0  0  0  0  0  0  0  0  0  0  0
   -7.3758  -63.3848   18.2972 C   0  0  0  0  0  0  0  0  0  0  0  0
   -6.7372  -62.5913   15.1774 O   0  0  0  0  0  0  0  0  0  0  0  0
   -6.0269  -61.4999   18.8891 O   0  0  0  0  0  0  0  0  0  0  0  0
   -9.6965  -64.0157   15.4245 O   0  0  0  0  0  0  0  0  0  0  0  0
   -7.9812  -60.9797   17.7309 C   0  0  0  0  0  0  0  0  0  0  0  0
   -8.8853  -61.2371   16.4531 C   0  0  0  0  0  0  0  0  0  0  0  0
   -8.5804  -63.6514   16.0508 C   0  0  0  0  0  0  0  0  0  0  0  0
  1  5  1  0
  1  7  1  0
  1  9  1  0
  2  3  1  0
  2  5  1  0
  2 11  1  0
  4  6  1  0
  4 10  1  0
  4 11  1  0
  8 11  1  0
  9 10  1  0
M  END
$$$$
