
     RDKit          3D

  9  9  0  0  0  0  0  0  0  0999 V2000
   -7.7564  -63.5560   16.7258 C   0  0  0  0  0  0  0  0  0  0  0  0
   -7.7054  -61.1469   16.3793 C   0  0  0  0  0  0  0  0  0  0  0  0
   -6.4759  -61.0731   16.9366 N   0  0  0  0  0  0  0  0  0  0  0  0
   -6.6840  -63.3680   17.6470 C   0  0  0  0  0  0  0  0  0  0  0  0
   -8.3375  -62.4072   16.0991 C   0  0  0  0  0  0  0  0  0  0  0  0
   -6.3288  -64.4202   18.3753 N   0  0  0  0  0  0  0  0  0  0  0  0
   -5.9624  -62.1642   17.6185 C   0  0  0  0  0  0  0  0  0  0  0  0
   -8.2235  -64.8397   16.6876 N   0  0  0  0  0  0  0  0  0  0  0  0
   -8.5248  -59.8267   16.4018 S   0  0  0  0  0  0  0  0  0  0  0  0
  1  4  1  0
  1  5  2  0
  1  8  1  0
  2  3  1  0
  2  5  1  0
  2  9  2  0
  3  7  2  0
  4  6  2  0
  4  7  1  0
M  END
$$$$
