
     RDKit          3D

  9  8  0  0  0  0  0  0  0  0999 V2000
   -7.1766  -65.5685   16.6110 O   0  0  0  0  0  0  0  0  0  0  0  0
   -8.3171  -61.6671   15.8754 C   0  0  0  0  0  0  0  0  0  0  0  0
   -7.1667  -63.8640   18.0159 O   0  0  0  0  0  0  0  0  0  0  0  0
   -9.4601  -62.5118   16.4532 C   0  0  0  0  0  0  0  0  0  0  0  0
   -7.2884  -62.3213   15.2969 O   0  0  0  0  0  0  0  0  0  0  0  0
   -7.6755  -64.3635   16.9732 C   0  0  0  0  0  0  0  0  0  0  0  0
   -9.0530  -60.0883   17.7473 O   0  0  0  0  0  0  0  0  0  0  0  0
   -8.1436  -60.3053   16.6330 C   0  0  0  0  0  0  0  0  0  0  0  0
   -8.9873  -63.9987   16.3727 C   0  0  0  0  0  0  0  0  0  0  0  0
  1  6  2  0
  2  4  1  0
  2  5  1  0
  2  8  1  0
  3  6  1  0
  4  9  1  0
  6  9  1  0
  7  8  1  0
M  END
$$$$
