
     RDKit          3D

 14 14  0  0  0  0  0  0  0  0999 V2000
  -14.3519   -5.9221    4.1775 C   0  0  0  0  0  0  0  0  0  0  0  0
  -15.7495   -5.7202    4.2249 C   0  0  0  0  0  0  0  0  0  0  0  0
  -20.9246   -6.7423    4.1411 C   0  0  0  0  0  0  0  0  0  0  0  0
  -18.2466   -5.4286    4.2611 C   0  0  0  0  0  0  0  0  0  0  0  0
  -11.9444   -6.9059    3.7192 O   0  0  0  0  0  0  0  0  0  0  0  0
  -13.7172   -6.6103    5.2281 O   0  0  0  0  0  0  0  0  0  0  0  0
  -20.6180   -5.4151    3.2604 C   0  0  0  0  0  0  0  0  0  0  0  0
  -18.4459   -6.9269    3.8514 C   0  0  0  0  0  0  0  0  0  0  0  0
  -12.2922   -6.6202    4.8984 C   0  0  0  0  0  0  0  0  0  0  0  0
  -11.4937   -6.4538    5.8279 O   0  0  0  0  0  0  0  0  0  0  0  0
  -19.5341   -4.5909    4.1604 C   0  0  0  0  0  0  0  0  0  0  0  0
  -17.6921   -5.4519    5.6307 N   0  0  0  0  0  0  0  0  0  0  0  0
  -19.6131   -7.2972    4.9295 C   0  0  0  0  0  0  0  0  0  0  0  0
  -16.4347   -6.1311    5.5146 C   0  0  0  0  0  0  0  0  0  0  0  0
  1  2  2  3
  1  6  1  0
  2 14  1  0
  3  7  1  0
  3 13  1  0
  4  8  1  0
  4 11  1  0
  4 12  1  0
  5  9  2  0
  6  9  1  0
  7 11  1  0
  8 13  1  0
  9 10  1  0
 12 14  1  0
M  END
$$$$
