
     RDKit          3D

 25 26  0  0  0  0  0  0  0  0999 V2000
  -14.0773   -7.5006    6.6270 N   0  0  0  0  0  0  0  0  0  0  0  0
  -23.9631   -3.7830    2.1345 O   0  0  0  0  0  0  0  0  0  0  0  0
  -14.3317   -6.6786    5.6114 C   0  0  0  0  0  0  0  0  0  0  0  0
  -21.4436   -6.5407    3.5033 C   0  0  0  0  0  0  0  0  0  0  0  0
  -13.1864   -6.2404    3.4838 N   0  0  0  0  0  0  0  0  0  0  0  0
  -17.2262   -5.0032    4.1173 C   0  0  0  0  0  0  0  0  0  0  0  0
  -15.1702   -8.3654    6.9205 C   0  0  0  0  0  0  0  0  0  0  0  0
  -20.0824   -4.5533    4.5479 C   0  0  0  0  0  0  0  0  0  0  0  0
  -13.2396   -6.3357    4.8125 C   0  0  0  0  0  0  0  0  0  0  0  0
  -15.8839   -5.6446    4.0645 C   0  0  0  0  0  0  0  0  0  0  0  0
  -23.6698   -7.2646    3.6537 C   0  0  0  0  0  0  0  0  0  0  0  0
  -23.5600   -4.7117    2.9698 C   0  0  0  0  0  0  0  0  0  0  0  0
  -21.3944   -5.0234    4.0037 C   0  0  0  0  0  0  0  0  0  0  0  0
  -18.2945   -6.0705    3.7595 C   0  0  0  0  0  0  0  0  0  0  0  0
   -9.9413   -7.0352    4.3849 O   0  0  0  0  0  0  0  0  0  0  0  0
  -11.0971   -6.5618    4.2737 C   0  0  0  0  0  0  0  0  0  0  0  0
  -11.9796   -6.4284    5.3029 N   0  0  0  0  0  0  0  0  0  0  0  0
  -15.6410   -6.6132    5.0759 C   0  0  0  0  0  0  0  0  0  0  0  0
  -22.1584   -2.7166    3.9572 C   0  0  0  0  0  0  0  0  0  0  0  0
  -22.5445   -4.1976    3.8793 C   0  0  0  0  0  0  0  0  0  0  0  0
  -24.0933   -6.0882    2.9442 C   0  0  0  0  0  0  0  0  0  0  0  0
  -15.3531   -9.4790    7.7455 N   0  0  0  0  0  0  0  0  0  0  0  0
  -19.3341   -5.9456    4.9340 C   0  0  0  0  0  0  0  0  0  0  0  0
  -22.3498   -7.3275    4.2344 C   0  0  0  0  0  0  0  0  0  0  0  0
  -11.8664   -6.3854    3.0515 C   0  0  0  0  0  0  0  0  0  0  0  0
  1  3  1  0
  1  7  1  0
  2 12  1  0
  3  9  1  0
  3 18  1  0
  4 13  1  0
  4 24  1  0
  5  9  2  0
  5 25  1  0
  6 10  1  0
  6 14  1  0
  7 22  1  0
  8 13  1  0
  8 23  1  0
  9 17  1  0
 10 18  1  0
 11 21  1  0
 11 24  1  0
 12 20  1  0
 12 21  2  0
 13 20  1  0
 14 23  1  0
 15 16  2  0
 16 17  1  0
 16 25  1  0
 19 20  1  0
M  END
$$$$
