
     RDKit          3D

 11 11  0  0  0  0  0  0  0  0999 V2000
  -14.4836   -7.2268    5.8516 O   0  0  0  0  0  0  0  0  0  0  0  0
  -18.3279   -7.4198    4.1827 C   0  0  0  0  0  0  0  0  0  0  0  0
  -19.7261   -7.2989    4.1939 C   0  0  0  0  0  0  0  0  0  0  0  0
  -12.0640   -7.1267    3.9710 O   0  0  0  0  0  0  0  0  0  0  0  0
  -20.0736   -5.9584    3.7773 N   0  0  0  0  0  0  0  0  0  0  0  0
  -16.6109   -5.7532    4.8039 C   0  0  0  0  0  0  0  0  0  0  0  0
  -18.8858   -5.1561    3.9910 N   0  0  0  0  0  0  0  0  0  0  0  0
  -14.1613   -6.4409    4.8961 C   0  0  0  0  0  0  0  0  0  0  0  0
  -17.7588   -6.0355    3.9170 C   0  0  0  0  0  0  0  0  0  0  0  0
  -15.2068   -5.6351    4.2655 C   0  0  0  0  0  0  0  0  0  0  0  0
  -12.7582   -6.1371    4.7299 C   0  0  0  0  0  0  0  0  0  0  0  0
  1  8  2  0
  2  3  1  0
  2  9  1  0
  3  5  1  0
  4 11  1  0
  5  7  1  0
  6  9  1  0
  6 10  1  0
  7  9  1  0
  8 10  1  0
  8 11  1  0
M  END
$$$$
