
     RDKit          3D

 23 23  0  0  0  0  0  0  0  0999 V2000
   23.9748   35.7554   99.9056 N   0  0  0  0  0  0  0  0  0  0  0  0
   24.8054   36.2426  100.8688 C   0  0  0  0  0  0  0  0  0  0  0  0
   31.2206   34.8377  103.5890 N   0  0  0  0  0  0  0  0  0  0  0  0
   23.9037   33.9754  107.3098 O   0  0  0  0  0  0  0  0  0  0  0  0
   29.2484   36.2241  103.6083 C   0  0  0  0  0  0  0  0  0  0  0  0
   23.9658   33.7888  104.9494 C   0  0  0  0  0  0  0  0  0  0  0  0
   30.6610   32.6562  102.6128 O   0  0  0  0  0  0  0  0  0  0  0  0
   31.5221   33.6162  102.8169 C   0  0  0  0  0  0  0  0  0  0  0  0
   25.1048   37.4559  100.9522 O   0  0  0  0  0  0  0  0  0  0  0  0
   27.1049   35.1213  103.6513 C   0  0  0  0  0  0  0  0  0  0  0  0
   29.9488   37.1086  103.7908 F   0  0  0  0  0  0  0  0  0  0  0  0
   25.1777   35.3812  101.9714 C   0  0  0  0  0  0  0  0  0  0  0  0
   25.5767   35.0044  106.3675 O   0  0  0  0  0  0  0  0  0  0  0  0
   24.9996   33.6409  103.7580 C   0  0  0  0  0  0  0  0  0  0  0  0
   31.9787   33.7289  104.3059 C   0  0  0  0  0  0  0  0  0  0  0  0
   27.9096   36.1990  103.3197 C   0  0  0  0  0  0  0  0  0  0  0  0
   25.6622   35.0084  103.2493 C   0  0  0  0  0  0  0  0  0  0  0  0
   29.8470   35.0030  103.9451 C   0  0  0  0  0  0  0  0  0  0  0  0
   27.7199   34.1441  104.3284 C   0  0  0  0  0  0  0  0  0  0  0  0
   31.6748   34.2232  105.8177 C   0  0  0  0  0  0  0  0  0  0  0  0
   24.5602   34.2736  106.2954 C   0  0  0  0  0  0  0  0  0  0  0  0
   29.0325   34.0972  104.5149 C   0  0  0  0  0  0  0  0  0  0  0  0
   32.3965   33.8647  101.8533 O   0  0  0  0  0  0  0  0  0  0  0  0
  1  2  1  0
  2  9  2  0
  2 12  1  0
  3  8  1  0
  3 18  1  0
  4 21  2  0
  5 11  1  0
  5 16  1  0
  5 18  1  0
  6 14  1  0
  6 21  1  0
  7  8  1  0
  8 15  1  0
  8 23  1  0
 10 16  2  0
 10 17  1  0
 10 19  1  0
 12 17  2  3
 13 21  1  0
 14 17  1  0
 15 20  1  0
 18 22  1  0
 19 22  2  0
M  END
$$$$
