
     RDKit          3D

 28 29  0  0  0  0  0  0  0  0999 V2000
   31.9455   32.4509  103.4141 N   0  0  0  0  0  0  0  0  0  0  0  0
   28.0900   35.6099  103.6819 C   0  0  0  0  0  0  0  0  0  0  0  0
   23.8217   32.5967  106.0849 C   0  0  0  0  0  0  0  0  0  0  0  0
   25.0963   35.6818  101.5864 C   0  0  0  0  0  0  0  0  0  0  0  0
   24.3140   34.0571  108.0167 C   0  0  0  0  0  0  0  0  0  0  0  0
   26.8194   35.3663  103.0252 C   0  0  0  0  0  0  0  0  0  0  0  0
   29.8081   34.2748  104.4666 C   0  0  0  0  0  0  0  0  0  0  0  0
   32.0202   33.9913  104.8100 C   0  0  0  0  0  0  0  0  0  0  0  0
   25.5147   33.5647  104.4435 C   0  0  0  0  0  0  0  0  0  0  0  0
   27.9596   34.2175  105.7629 C   0  0  0  0  0  0  0  0  0  0  0  0
   24.3632   36.3236  100.5830 C   0  0  0  0  0  0  0  0  0  0  0  0
   24.3871   33.5452  105.2546 O   0  0  0  0  0  0  0  0  0  0  0  0
   28.5285   34.6834  104.6426 N   0  0  0  0  0  0  0  0  0  0  0  0
   31.7629   33.6979  103.3369 C   0  0  0  0  0  0  0  0  0  0  0  0
   23.1293   33.5553  107.2096 C   0  0  0  0  0  0  0  0  0  0  0  0
   25.7249   34.5010  103.3920 C   0  0  0  0  0  0  0  0  0  0  0  0
   33.0949   34.0479  105.3715 O   0  0  0  0  0  0  0  0  0  0  0  0
   30.2520   33.8651  103.2003 C   0  0  0  0  0  0  0  0  0  0  0  0
   30.8889   34.8708  105.1801 C   0  0  0  0  0  0  0  0  0  0  0  0
   23.3785   35.7972   99.8123 C   0  0  0  0  0  0  0  0  0  0  0  0
   24.7121   34.7269  102.4673 C   0  0  0  0  0  0  0  0  0  0  0  0
   32.1846   34.0219  101.9488 O   0  0  0  0  0  0  0  0  0  0  0  0
   29.6346   32.9654  102.5115 O   0  0  0  0  0  0  0  0  0  0  0  0
   28.7811   36.6043  103.3679 O   0  0  0  0  0  0  0  0  0  0  0  0
   31.2956   36.0817  104.4584 O   0  0  0  0  0  0  0  0  0  0  0  0
   24.8926   37.4933  100.5828 O   0  0  0  0  0  0  0  0  0  0  0  0
   25.6436   33.8910  107.9666 O   0  0  0  0  0  0  0  0  0  0  0  0
   26.4286   36.0858  101.9245 C   0  0  0  0  0  0  0  0  0  0  0  0
  1 14  1  0
  2  6  1  0
  2 13  1  0
  2 24  2  0
  3 12  1  0
  3 15  1  0
  4 11  1  0
  4 21  1  0
  4 28  1  0
  5 15  1  0
  5 27  1  0
  6 16  2  0
  6 28  1  0
  7 13  1  0
  7 18  1  0
  7 19  1  0
  8 14  1  0
  8 17  2  0
  8 19  1  0
  9 12  1  0
  9 16  1  0
 10 13  1  0
 11 20  1  0
 11 26  2  0
 14 18  1  0
 14 22  1  0
 16 21  1  0
 18 23  1  0
 19 25  1  0
M  END
$$$$
