
     RDKit          3D

 29 30  0  0  0  0  0  0  0  0999 V2000
   31.9032   33.9152  103.9502 C   0  0  0  0  0  0  0  0  0  0  0  0
   22.6896   35.2592   99.5864 N   0  0  0  0  0  0  0  0  0  0  0  0
   25.6390   34.1467  105.7491 C   0  0  0  0  0  0  0  0  0  0  0  0
   29.3275   33.3552  103.3264 N   0  0  0  0  0  0  0  0  0  0  0  0
   21.3660   32.0103  106.6194 O   0  0  0  0  0  0  0  0  0  0  0  0
   31.5922   32.8817  103.1164 N   0  0  0  0  0  0  0  0  0  0  0  0
   30.3011   32.8159  102.7139 C   0  0  0  0  0  0  0  0  0  0  0  0
   23.7226   35.9888   99.7612 C   0  0  0  0  0  0  0  0  0  0  0  0
   23.7450   36.7772   99.2871 O   0  0  0  0  0  0  0  0  0  0  0  0
   32.8698   33.8162  104.8432 N   0  0  0  0  0  0  0  0  0  0  0  0
   29.9338   36.8528  103.6669 O   0  0  0  0  0  0  0  0  0  0  0  0
   25.6800   34.4203  107.1056 C   0  0  0  0  0  0  0  0  0  0  0  0
   24.5709   34.0784  107.8755 C   0  0  0  0  0  0  0  0  0  0  0  0
   22.2995   32.3128  105.6094 N   0  0  0  0  0  0  0  0  0  0  0  0
   26.8719   34.4819  105.1200 C   0  0  0  0  0  0  0  0  0  0  0  0
   30.1030   35.6324  103.7802 C   0  0  0  0  0  0  0  0  0  0  0  0
   24.5204   34.4422  109.1191 O   0  0  0  0  0  0  0  0  0  0  0  0
   24.5335   33.3748  105.2479 C   0  0  0  0  0  0  0  0  0  0  0  0
   29.1134   34.5217  103.9393 C   0  0  0  0  0  0  0  0  0  0  0  0
   27.8340   35.0072  104.2597 C   0  0  0  0  0  0  0  0  0  0  0  0
   24.6822   34.8813  101.7151 C   0  0  0  0  0  0  0  0  0  0  0  0
   31.3002   35.1015  103.8460 N   0  0  0  0  0  0  0  0  0  0  0  0
   25.9554   36.7650  100.8351 S   0  0  0  0  0  0  0  0  0  0  0  0
   26.2333   35.4062  102.8850 C   0  0  0  0  0  0  0  0  0  0  0  0
   23.4824   33.4140  107.3684 C   0  0  0  0  0  0  0  0  0  0  0  0
   27.2859   35.9765  103.2081 C   0  0  0  0  0  0  0  0  0  0  0  0
   24.5987   35.7670  100.8369 C   0  0  0  0  0  0  0  0  0  0  0  0
   23.4422   33.0278  106.0767 C   0  0  0  0  0  0  0  0  0  0  0  0
   25.2047   34.7140  102.7984 C   0  0  0  0  0  0  0  0  0  0  0  0
  1  6  1  0
  1 10  2  0
  1 22  1  0
  2  8  1  0
  3 12  1  0
  3 15  2  0
  3 18  1  0
  4  7  1  0
  4 19  2  0
  5 14  1  0
  6  7  1  0
  8  9  2  0
  8 27  1  0
 11 16  2  0
 12 13  1  0
 13 17  1  0
 13 25  2  0
 14 28  1  0
 15 20  2  0
 16 19  1  0
 16 22  1  0
 18 28  2  0
 19 20  1  0
 20 26  1  0
 21 27  1  0
 21 29  1  0
 23 27  2  0
 24 26  1  0
 24 29  1  0
 25 28  1  0
M  END
$$$$
