
     RDKit          3D

 28 29  0  0  0  0  0  0  0  0999 V2000
   27.7523   36.2118  102.9319 N   0  0  0  0  0  0  0  0  0  0  0  0
   24.0327   36.0185   99.9685 C   0  0  0  0  0  0  0  0  0  0  0  0
   29.3483   34.7906  103.7911 N   0  0  0  0  0  0  0  0  0  0  0  0
   22.2673   34.1581  108.7194 C   0  0  0  0  0  0  0  0  0  0  0  0
   20.2278   32.6590  108.3216 C   0  0  0  0  0  0  0  0  0  0  0  0
   27.1113   34.7797  104.7166 N   0  0  0  0  0  0  0  0  0  0  0  0
   24.8776   34.2781  105.0063 C   0  0  0  0  0  0  0  0  0  0  0  0
   31.9049   34.0995  102.0638 C   0  0  0  0  0  0  0  0  0  0  0  0
   29.7741   36.9530  103.6653 O   0  0  0  0  0  0  0  0  0  0  0  0
   23.7808   34.3675  108.6601 N   0  0  0  0  0  0  0  0  0  0  0  0
   29.8690   33.5714  103.3030 C   0  0  0  0  0  0  0  0  0  0  0  0
   25.6231   35.2086  102.8504 C   0  0  0  0  0  0  0  0  0  0  0  0
   21.4036   33.1135  106.2191 C   0  0  0  0  0  0  0  0  0  0  0  0
   23.8213   34.0147  106.0826 N   0  0  0  0  0  0  0  0  0  0  0  0
   31.8086   32.4163  103.3613 O   0  0  0  0  0  0  0  0  0  0  0  0
   26.8651   35.3615  103.4931 C   0  0  0  0  0  0  0  0  0  0  0  0
   26.1617   34.3642  105.5340 C   0  0  0  0  0  0  0  0  0  0  0  0
   25.2192   36.7024  100.8028 C   0  0  0  0  0  0  0  0  0  0  0  0
   31.4642   33.6868  103.4382 C   0  0  0  0  0  0  0  0  0  0  0  0
   24.4222   34.0585  107.4588 C   0  0  0  0  0  0  0  0  0  0  0  0
   21.5921   33.1781  107.7758 C   0  0  0  0  0  0  0  0  0  0  0  0
   24.6979   34.5500  103.6240 C   0  0  0  0  0  0  0  0  0  0  0  0
   25.5204   35.7831  101.6317 O   0  0  0  0  0  0  0  0  0  0  0  0
   31.0504   34.1033  105.8331 O   0  0  0  0  0  0  0  0  0  0  0  0
   31.7784   34.3643  104.7166 C   0  0  0  0  0  0  0  0  0  0  0  0
   32.0718   35.6007  104.7347 O   0  0  0  0  0  0  0  0  0  0  0  0
   22.6388   33.4123  105.3567 C   0  0  0  0  0  0  0  0  0  0  0  0
   29.0196   36.0228  103.4730 C   0  0  0  0  0  0  0  0  0  0  0  0
  1 16  1  0
  1 28  1  0
  2 18  1  0
  3 11  1  0
  3 28  1  0
  4 10  1  0
  4 21  1  0
  5 21  1  0
  6 16  1  0
  6 17  2  0
  7 14  1  0
  7 17  1  0
  7 22  1  0
  8 19  1  0
  9 28  2  0
 10 20  1  0
 11 19  1  0
 12 16  2  0
 12 22  1  0
 12 23  1  0
 13 21  1  0
 13 27  2  0
 14 20  1  0
 14 27  1  0
 15 19  1  0
 18 23  1  0
 19 25  1  0
 24 25  2  0
 25 26  1  0
M  END
$$$$
