
     RDKit          3D

 22 24  0  0  0  0  0  0  0  0999 V2000
   25.6869   35.1481  102.8879 C   0  0  0  0  0  0  0  0  0  0  0  0
   27.4323   33.5989  103.5479 C   0  0  0  0  0  0  0  0  0  0  0  0
   27.8372   36.3536  102.9999 N   0  0  0  0  0  0  0  0  0  0  0  0
   26.0886   33.9356  103.8059 C   0  0  0  0  0  0  0  0  0  0  0  0
   30.0647   36.1095  103.6449 N   0  0  0  0  0  0  0  0  0  0  0  0
   24.3932   37.0486  100.2901 O   0  0  0  0  0  0  0  0  0  0  0  0
   24.0261   32.7887  104.3504 O   0  0  0  0  0  0  0  0  0  0  0  0
   31.0207   35.2200  103.6527 C   0  0  0  0  0  0  0  0  0  0  0  0
   28.9013   35.5610  103.2952 C   0  0  0  0  0  0  0  0  0  0  0  0
   31.0730   34.0548  103.1078 N   0  0  0  0  0  0  0  0  0  0  0  0
   25.3808   34.7057  108.2662 O   0  0  0  0  0  0  0  0  0  0  0  0
   26.7949   35.9538  102.3908 C   0  0  0  0  0  0  0  0  0  0  0  0
   25.0520   36.2445  100.7685 C   0  0  0  0  0  0  0  0  0  0  0  0
   25.0333   33.6003  104.8524 C   0  0  0  0  0  0  0  0  0  0  0  0
   25.6209   33.8969  107.3066 C   0  0  0  0  0  0  0  0  0  0  0  0
   26.4282   36.7245  101.2132 C   0  0  0  0  0  0  0  0  0  0  0  0
   24.7732   35.2182  101.8028 C   0  0  0  0  0  0  0  0  0  0  0  0
   24.9149   34.3754  106.0678 C   0  0  0  0  0  0  0  0  0  0  0  0
   32.1575   33.5633  102.5261 O   0  0  0  0  0  0  0  0  0  0  0  0
   29.8580   33.3526  103.0365 C   0  0  0  0  0  0  0  0  0  0  0  0
   28.7240   34.1458  103.2901 C   0  0  0  0  0  0  0  0  0  0  0  0
   23.7000   34.9102  106.3612 O   0  0  0  0  0  0  0  0  0  0  0  0
  1  4  1  0
  1 12  1  0
  1 17  1  0
  2  4  1  0
  2 21  2  0
  3  9  2  0
  3 12  1  0
  4 14  1  0
  5  8  1  0
  5  9  1  0
  6 13  2  0
  7 14  1  0
  8 10  1  0
  9 21  1  0
 10 19  1  0
 10 20  1  0
 11 15  1  0
 12 16  1  0
 13 16  1  0
 13 17  1  0
 14 18  1  0
 15 18  1  0
 18 22  1  0
 20 21  1  0
M  END
$$$$
