
     RDKit          3D

 21 22  0  0  0  0  0  0  0  0999 V2000
   28.5696   35.3215  104.2599 C   0  0  0  0  0  0  0  0  0  0  0  0
   28.3118   36.3460  103.2956 O   0  0  0  0  0  0  0  0  0  0  0  0
   24.6985   36.3570  100.7299 C   0  0  0  0  0  0  0  0  0  0  0  0
   31.7587   34.0052  102.9834 C   0  0  0  0  0  0  0  0  0  0  0  0
   26.1378   34.3801  107.7148 O   0  0  0  0  0  0  0  0  0  0  0  0
   32.3640   33.5940  104.1099 N   0  0  0  0  0  0  0  0  0  0  0  0
   26.1058   35.1219  103.8285 C   0  0  0  0  0  0  0  0  0  0  0  0
   26.4149   34.7253  105.2268 C   0  0  0  0  0  0  0  0  0  0  0  0
   30.6091   34.4101  105.4139 C   0  0  0  0  0  0  0  0  0  0  0  0
   27.7452   34.6500  105.2133 C   0  0  0  0  0  0  0  0  0  0  0  0
   30.6584   34.7168  103.0933 N   0  0  0  0  0  0  0  0  0  0  0  0
   25.1899   37.5523  100.9015 O   0  0  0  0  0  0  0  0  0  0  0  0
   31.8530   33.8618  105.3319 C   0  0  0  0  0  0  0  0  0  0  0  0
   24.3507   34.6529  106.4008 O   0  0  0  0  0  0  0  0  0  0  0  0
   32.3263   33.8367  101.7868 O   0  0  0  0  0  0  0  0  0  0  0  0
   24.9184   35.3791  101.7204 C   0  0  0  0  0  0  0  0  0  0  0  0
   24.9388   34.6270  103.0213 C   0  0  0  0  0  0  0  0  0  0  0  0
   25.6388   34.5035  106.4995 C   0  0  0  0  0  0  0  0  0  0  0  0
   23.6118   36.0595   99.7781 C   0  0  0  0  0  0  0  0  0  0  0  0
   27.1819   35.7927  103.2195 N   0  0  0  0  0  0  0  0  0  0  0  0
   30.0046   34.8160  104.2678 C   0  0  0  0  0  0  0  0  0  0  0  0
  1  2  1  0
  1 10  2  0
  1 21  1  0
  2 20  1  0
  3 12  1  0
  3 16  1  0
  3 19  1  0
  4  6  1  0
  4 11  1  0
  4 15  2  0
  5 18  2  0
  6 13  2  0
  7  8  1  0
  7 17  1  0
  7 20  2  0
  8 10  1  0
  8 18  1  0
  9 13  1  0
  9 21  1  0
 11 21  2  0
 14 18  1  0
 16 17  1  0
M  END
$$$$
