
     RDKit          3D

 12 12  0  0  0  0  0  0  0  0999 V2000
   -7.1146    3.4689  -30.8890 C   0  0  0  0  0  0  0  0  0  0  0  0
  -10.1656    4.2215  -28.7327 C   0  0  0  0  0  0  0  0  0  0  0  0
   -6.0406    2.1728  -32.1970 O   0  0  0  0  0  0  0  0  0  0  0  0
   -9.6347    5.2356  -27.9396 C   0  0  0  0  0  0  0  0  0  0  0  0
   -7.1344    2.3777  -31.8658 C   0  0  0  0  0  0  0  0  0  0  0  0
   -7.6772    5.2195  -29.2598 C   0  0  0  0  0  0  0  0  0  0  0  0
   -7.9901    7.0244  -27.7663 O   0  0  0  0  0  0  0  0  0  0  0  0
   -9.3746    3.6518  -29.7876 C   0  0  0  0  0  0  0  0  0  0  0  0
   -8.0991    1.5553  -32.3108 O   0  0  0  0  0  0  0  0  0  0  0  0
   -8.4304    5.8680  -28.3171 C   0  0  0  0  0  0  0  0  0  0  0  0
   -8.0334    4.0875  -29.9732 C   0  0  0  0  0  0  0  0  0  0  0  0
  -10.0028    2.8131  -30.5901 O   0  0  0  0  0  0  0  0  0  0  0  0
  1  5  1  0
  1 11  1  0
  2  4  2  0
  2  8  1  0
  3  5  2  0
  4 10  1  0
  5  9  1  0
  6 10  2  0
  6 11  1  0
  7 10  1  0
  8 11  2  0
  8 12  1  0
M  END
$$$$
