
     RDKit          3D

 20 19  0  0  0  0  0  0  0  0999 V2000
   -6.0322    2.1603  -32.1930 O   0  0  0  0  0  0  0  0  0  0  0  0
  -10.0861    4.0012  -27.9712 C   0  0  0  0  0  0  0  0  0  0  0  0
   -8.2144    5.1557  -29.1911 C   0  0  0  0  0  0  0  0  0  0  0  0
   -8.1065    2.3859  -31.5132 C   0  0  0  0  0  0  0  0  0  0  0  0
  -11.5597    2.8903  -30.8230 C   0  0  0  0  0  0  0  0  0  0  0  0
   -8.6590    7.1556  -27.1597 O   0  0  0  0  0  0  0  0  0  0  0  0
   -8.7701    1.4245  -32.4801 O   0  0  0  0  0  0  0  0  0  0  0  0
   -7.0877    2.6844  -32.3639 C   0  0  0  0  0  0  0  0  0  0  0  0
  -10.1923    3.2836  -30.6022 C   0  0  0  0  0  0  0  0  0  0  0  0
   -9.5478    5.3072  -28.3423 C   0  0  0  0  0  0  0  0  0  0  0  0
   -9.4858    6.1481  -27.2051 C   0  0  0  0  0  0  0  0  0  0  0  0
   -9.7355    5.9166  -30.8724 C   0  0  0  0  0  0  0  0  0  0  0  0
   -9.4934    6.7234  -31.8946 O   0  0  0  0  0  0  0  0  0  0  0  0
   -8.9913    3.6679  -31.4427 C   0  0  0  0  0  0  0  0  0  0  0  0
   -7.4863    2.5664  -30.2274 O   0  0  0  0  0  0  0  0  0  0  0  0
   -8.4204    5.0434  -30.7495 C   0  0  0  0  0  0  0  0  0  0  0  0
  -10.8307    2.9847  -28.2847 O   0  0  0  0  0  0  0  0  0  0  0  0
   -7.3605    3.5418  -33.3535 O   0  0  0  0  0  0  0  0  0  0  0  0
  -10.5761    6.0371  -26.3504 N   0  0  0  0  0  0  0  0  0  0  0  0
   -7.2787    4.7707  -28.2490 C   0  0  0  0  0  0  0  0  0  0  0  0
  1  8  2  0
  2 10  1  0
  2 17  1  0
  3 10  1  0
  3 16  1  0
  3 20  1  0
  4  7  1  0
  4  8  1  0
  4 14  1  0
  4 15  1  0
  5  9  1  0
  6 11  2  0
  8 18  1  0
  9 14  1  0
 10 11  1  0
 11 19  1  0
 12 13  1  0
 12 16  1  0
 14 16  1  0
M  END
$$$$
