
     RDKit          3D

 11 11  0  0  0  0  0  0  0  0999 V2000
   -9.5061    3.5666  -30.7227 C   0  0  0  0  0  0  0  0  0  0  0  0
   -9.9316    3.8205  -29.2605 C   0  0  0  0  0  0  0  0  0  0  0  0
   -7.8669    3.8392  -30.8666 C   0  0  0  0  0  0  0  0  0  0  0  0
   -8.8428    4.0698  -28.1805 C   0  0  0  0  0  0  0  0  0  0  0  0
   -7.7447    5.2303  -30.1099 C   0  0  0  0  0  0  0  0  0  0  0  0
   -8.1751    5.6329  -28.4947 C   0  0  0  0  0  0  0  0  0  0  0  0
   -6.0499    2.2026  -32.1658 O   0  0  0  0  0  0  0  0  0  0  0  0
   -7.3462    3.5739  -33.3387 O   0  0  0  0  0  0  0  0  0  0  0  0
   -8.3722    1.5024  -32.3665 O   0  0  0  0  0  0  0  0  0  0  0  0
  -10.9168    3.0555  -28.8557 O   0  0  0  0  0  0  0  0  0  0  0  0
   -7.4244    2.6853  -32.1320 P   0  0  0  0  0  0  0  0  0  0  0  0
  1  2  1  0
  1  3  1  0
  2  4  1  0
  2 10  1  0
  3  5  1  0
  3 11  1  0
  4  6  1  0
  5  6  1  0
  7 11  1  0
  8 11  1  0
  9 11  1  0
M  END
$$$$
