
     RDKit          3D

 27 27  0  0  0  0  0  0  0  0999 V2000
   -8.6248    3.7692  -31.6826 C   0  0  0  0  0  0  0  0  0  0  0  0
  -10.0252    4.1220  -29.6767 C   0  0  0  0  0  0  0  0  0  0  0  0
  -11.3888    5.4741  -26.5871 O   0  0  0  0  0  0  0  0  0  0  0  0
   -9.6537    2.7035  -31.8421 C   0  0  0  0  0  0  0  0  0  0  0  0
   -9.3904    1.7379  -32.7640 O   0  0  0  0  0  0  0  0  0  0  0  0
   -6.4507    4.0776  -27.3461 C   0  0  0  0  0  0  0  0  0  0  0  0
  -10.5434    3.1099  -30.7183 C   0  0  0  0  0  0  0  0  0  0  0  0
   -5.7767    3.5810  -27.9748 O   0  0  0  0  0  0  0  0  0  0  0  0
   -7.4521    3.5906  -33.2314 O   0  0  0  0  0  0  0  0  0  0  0  0
   -7.5508    6.6458  -27.3040 N   0  0  0  0  0  0  0  0  0  0  0  0
  -12.5610    4.2269  -30.7011 O   0  0  0  0  0  0  0  0  0  0  0  0
   -6.5197   -0.5738  -29.6906 C   0  0  0  0  0  0  0  0  0  0  0  0
   -8.3618    4.8234  -28.1669 C   0  0  0  0  0  0  0  0  0  0  0  0
  -10.8525    2.6471  -28.4087 C   0  0  0  0  0  0  0  0  0  0  0  0
   -7.3898    5.3886  -27.6096 C   0  0  0  0  0  0  0  0  0  0  0  0
   -7.0333    2.0526  -31.6904 C   0  0  0  0  0  0  0  0  0  0  0  0
  -10.5394    4.8567  -27.4129 C   0  0  0  0  0  0  0  0  0  0  0  0
   -8.9691    6.6934  -27.0638 C   0  0  0  0  0  0  0  0  0  0  0  0
   -9.4388    5.5906  -27.6470 C   0  0  0  0  0  0  0  0  0  0  0  0
   -8.5208    5.2370  -31.6018 O   0  0  0  0  0  0  0  0  0  0  0  0
  -10.6115    4.2026  -28.6672 C   0  0  0  0  0  0  0  0  0  0  0  0
   -5.9766    2.2963  -32.1555 O   0  0  0  0  0  0  0  0  0  0  0  0
  -11.9478    2.8199  -30.8917 C   0  0  0  0  0  0  0  0  0  0  0  0
   -8.6865    3.8702  -29.1434 O   0  0  0  0  0  0  0  0  0  0  0  0
   -7.4597    3.2345  -32.2983 C   0  0  0  0  0  0  0  0  0  0  0  0
   -5.2770   -1.4732  -29.7191 O   0  0  0  0  0  0  0  0  0  0  0  0
   -7.1098    1.1396  -30.9632 C   0  0  0  0  0  0  0  0  0  0  0  0
  1  4  1  0
  1 20  1  0
  1 25  1  0
  2  7  1  0
  2 21  1  0
  2 24  1  0
  3 17  1  0
  4  5  1  0
  4  7  1  0
  6  8  2  0
  6 15  1  0
  7 23  1  0
  9 25  2  0
 10 15  1  0
 10 18  1  0
 11 23  1  0
 12 26  1  0
 13 15  1  0
 13 19  1  0
 13 24  1  0
 14 21  1  0
 16 22  2  0
 16 25  1  0
 16 27  1  0
 17 19  1  0
 17 21  1  0
 18 19  1  0
M  END
$$$$
