
     RDKit          3D

 10  9  0  0  0  0  0  0  0  0999 V2000
   -8.5391    4.9643  -29.4228 C   0  0  0  0  0  0  0  0  0  0  0  0
   -7.7776    5.4967  -28.2844 O   0  0  0  0  0  0  0  0  0  0  0  0
   -6.0931    2.2014  -32.2127 O   0  0  0  0  0  0  0  0  0  0  0  0
   -9.7556    4.1328  -28.8484 C   0  0  0  0  0  0  0  0  0  0  0  0
   -8.3410    1.4806  -32.3470 O   0  0  0  0  0  0  0  0  0  0  0  0
   -7.4026    2.3329  -32.0777 C   0  0  0  0  0  0  0  0  0  0  0  0
   -7.9420    3.6945  -31.7092 C   0  0  0  0  0  0  0  0  0  0  0  0
   -9.2295    6.1309  -30.0849 O   0  0  0  0  0  0  0  0  0  0  0  0
   -7.5749    3.9115  -30.1971 C   0  0  0  0  0  0  0  0  0  0  0  0
   -6.2612    3.8590  -30.1991 O   0  0  0  0  0  0  0  0  0  0  0  0
  1  2  1  0
  1  4  1  0
  1  8  1  0
  1  9  1  0
  3  6  2  0
  5  6  1  0
  6  7  1  0
  7  9  1  0
  9 10  1  0
M  END
$$$$
