
     RDKit          3D

 14 14  0  0  0  0  0  0  0  0999 V2000
   -7.4170    2.9460  -32.0510 P   0  0  0  0  0  0  0  0  0  0  0  0
   -8.0770    7.2417  -27.8370 N   0  0  0  0  0  0  0  0  0  0  0  0
   -8.6087    3.4151  -31.1616 C   0  0  0  0  0  0  0  0  0  0  0  0
   -7.2293    1.6699  -32.4014 O   0  0  0  0  0  0  0  0  0  0  0  0
   -7.8952    5.2686  -29.0017 N   0  0  0  0  0  0  0  0  0  0  0  0
  -10.7853    3.1838  -30.1404 C   0  0  0  0  0  0  0  0  0  0  0  0
  -11.8089    2.5441  -30.1068 O   0  0  0  0  0  0  0  0  0  0  0  0
   -8.6775    6.0977  -28.1361 C   0  0  0  0  0  0  0  0  0  0  0  0
   -7.3471    3.6054  -33.3535 O   0  0  0  0  0  0  0  0  0  0  0  0
   -9.9805    3.9087  -29.1668 C   0  0  0  0  0  0  0  0  0  0  0  0
   -9.6235    5.6683  -27.4109 N   0  0  0  0  0  0  0  0  0  0  0  0
   -8.5390    4.1171  -29.7527 C   0  0  0  0  0  0  0  0  0  0  0  0
   -6.3096    3.5037  -31.3059 O   0  0  0  0  0  0  0  0  0  0  0  0
   -9.9615    2.8994  -31.4012 C   0  0  0  0  0  0  0  0  0  0  0  0
  1  3  1  0
  1  4  1  0
  1  9  1  0
  1 13  1  0
  2  8  1  0
  3 12  1  0
  3 14  1  0
  5  8  2  3
  5 12  1  0
  6  7  2  0
  6 10  1  0
  6 14  1  0
  8 11  1  0
 10 12  1  0
M  END
$$$$
