
     RDKit          3D

 15 16  0  0  0  0  0  0  0  0999 V2000
   -7.7555    3.2698  -30.8317 C   0  0  0  0  0  0  0  0  0  0  0  0
  -11.0373    5.6406  -26.5115 O   0  0  0  0  0  0  0  0  0  0  0  0
   -7.5276    4.4184  -29.9294 C   0  0  0  0  0  0  0  0  0  0  0  0
  -10.6425    3.7392  -28.1352 C   0  0  0  0  0  0  0  0  0  0  0  0
   -8.6036    4.4193  -28.8894 N   0  0  0  0  0  0  0  0  0  0  0  0
  -10.3679    5.0188  -27.4083 C   0  0  0  0  0  0  0  0  0  0  0  0
   -7.3473    3.5626  -33.3424 O   0  0  0  0  0  0  0  0  0  0  0  0
   -8.6120    6.7359  -28.0496 N   0  0  0  0  0  0  0  0  0  0  0  0
   -8.2712    1.5535  -32.3707 O   0  0  0  0  0  0  0  0  0  0  0  0
   -7.3394    5.4608  -30.4007 O   0  0  0  0  0  0  0  0  0  0  0  0
   -6.0282    2.1843  -32.1854 O   0  0  0  0  0  0  0  0  0  0  0  0
   -9.3627    3.0145  -30.7049 C   0  0  0  0  0  0  0  0  0  0  0  0
   -9.7642    3.5042  -29.2711 C   0  0  0  0  0  0  0  0  0  0  0  0
   -9.1417    5.4894  -27.9356 C   0  0  0  0  0  0  0  0  0  0  0  0
   -7.3090    2.6365  -32.1869 P   0  0  0  0  0  0  0  0  0  0  0  0
  1  3  1  0
  1 12  1  0
  1 15  1  0
  2  6  2  0
  3  5  1  0
  3 10  1  0
  4  6  1  0
  4 13  1  0
  5 13  1  0
  5 14  1  0
  6 14  1  0
  7 15  1  0
  8 14  2  0
  9 15  1  0
 11 15  1  0
 12 13  1  0
M  END
$$$$
