
     RDKit          3D

 12 12  0  0  0  0  0  0  0  0999 V2000
  -10.2256    5.1463  -27.4375 N   0  0  0  0  0  0  0  0  0  0  0  0
   -8.0891    1.5837  -32.3050 O   0  0  0  0  0  0  0  0  0  0  0  0
   -7.6512    3.0949  -30.8975 C   0  0  0  0  0  0  0  0  0  0  0  0
   -8.5393    4.0755  -31.6035 C   0  0  0  0  0  0  0  0  0  0  0  0
   -9.2562    6.5279  -31.7656 O   0  0  0  0  0  0  0  0  0  0  0  0
   -8.5406    5.4105  -30.8735 C   0  0  0  0  0  0  0  0  0  0  0  0
   -8.0434    6.3024  -28.6132 O   0  0  0  0  0  0  0  0  0  0  0  0
   -8.3872    4.9816  -29.2894 C   0  0  0  0  0  0  0  0  0  0  0  0
   -7.3964    3.6635  -29.5566 C   0  0  0  0  0  0  0  0  0  0  0  0
   -7.2069    2.1330  -31.8575 C   0  0  0  0  0  0  0  0  0  0  0  0
   -9.3651    4.2416  -28.1475 C   0  0  0  0  0  0  0  0  0  0  0  0
   -6.0533    2.1861  -32.1833 O   0  0  0  0  0  0  0  0  0  0  0  0
  1 11  1  0
  2 10  2  0
  3  4  1  0
  3  9  1  0
  3 10  1  0
  4  6  1  0
  5  6  1  0
  6  8  1  0
  7  8  1  0
  8  9  1  0
  8 11  1  0
 10 12  1  0
M  END
$$$$
