
     RDKit          3D

 14 14  0  0  0  0  0  0  0  0999 V2000
   -7.5144    2.0816  -31.6967 C   0  0  0  0  0  0  0  0  0  0  0  0
   -6.0999    2.2071  -32.2213 O   0  0  0  0  0  0  0  0  0  0  0  0
   -8.6308    1.4598  -32.4588 O   0  0  0  0  0  0  0  0  0  0  0  0
  -10.4020    5.3610  -27.1694 O   0  0  0  0  0  0  0  0  0  0  0  0
   -7.4009    3.9701  -32.7142 O   0  0  0  0  0  0  0  0  0  0  0  0
   -8.7177    3.7804  -30.2135 C   0  0  0  0  0  0  0  0  0  0  0  0
   -8.4340    6.8077  -28.1839 O   0  0  0  0  0  0  0  0  0  0  0  0
   -7.6719    4.8100  -29.5804 C   0  0  0  0  0  0  0  0  0  0  0  0
   -9.8465    3.7944  -29.1303 C   0  0  0  0  0  0  0  0  0  0  0  0
   -9.5106    4.5786  -27.8705 C   0  0  0  0  0  0  0  0  0  0  0  0
  -11.0087    3.1133  -29.2579 O   0  0  0  0  0  0  0  0  0  0  0  0
   -7.0967    0.8575  -31.0429 O   0  0  0  0  0  0  0  0  0  0  0  0
   -8.1149    5.3441  -28.1774 C   0  0  0  0  0  0  0  0  0  0  0  0
   -7.9686    3.5507  -31.6453 C   0  0  0  0  0  0  0  0  0  0  0  0
  1  2  1  0
  1  3  1  0
  1 12  1  0
  1 14  1  0
  4 10  1  0
  5 14  2  0
  6  8  1  0
  6  9  2  0
  6 14  1  0
  7 13  1  0
  8 13  1  0
  9 10  1  0
  9 11  1  0
 10 13  1  0
M  END
$$$$
