
     RDKit          3D

 16 16  0  0  0  0  0  0  0  0999 V2000
   -6.0124    2.1948  -32.1853 O   0  0  0  0  0  0  0  0  0  0  0  0
   -8.7963    6.0313  -31.3705 O   0  0  0  0  0  0  0  0  0  0  0  0
   -7.7163    4.4997  -28.5807 C   0  0  0  0  0  0  0  0  0  0  0  0
  -10.7440    4.2127  -28.0406 O   0  0  0  0  0  0  0  0  0  0  0  0
   -7.3480    3.5328  -33.3429 O   0  0  0  0  0  0  0  0  0  0  0  0
   -9.4975    4.9594  -30.2282 C   0  0  0  0  0  0  0  0  0  0  0  0
   -9.6593    2.4989  -32.0891 C   0  0  0  0  0  0  0  0  0  0  0  0
   -8.7723    5.5795  -28.9291 C   0  0  0  0  0  0  0  0  0  0  0  0
  -11.4223    3.0952  -30.0289 C   0  0  0  0  0  0  0  0  0  0  0  0
   -7.0502    3.8747  -29.8077 C   0  0  0  0  0  0  0  0  0  0  0  0
   -7.2825    2.5528  -32.1697 P   0  0  0  0  0  0  0  0  0  0  0  0
   -9.1340    3.7397  -31.2768 C   0  0  0  0  0  0  0  0  0  0  0  0
   -7.7267    3.2234  -30.8906 C   0  0  0  0  0  0  0  0  0  0  0  0
   -8.4595    6.7291  -28.4592 O   0  0  0  0  0  0  0  0  0  0  0  0
  -10.2494    3.6836  -29.1897 C   0  0  0  0  0  0  0  0  0  0  0  0
   -8.4184    1.4976  -32.3877 O   0  0  0  0  0  0  0  0  0  0  0  0
  1 11  1  0
  2  6  1  0
  3  8  1  0
  3 10  1  0
  4 15  1  0
  5 11  1  0
  6  8  1  0
  6 12  1  0
  6 15  1  0
  7 12  1  0
  7 16  1  0
  8 14  2  0
  9 15  1  0
 10 13  1  0
 11 13  1  0
 12 13  1  0
M  END
$$$$
