
     RDKit          3D

 23 25  0  0  0  0  0  0  0  0999 V2000
    1.3771    2.1407    0.0066 C   0  0  0  0  0  0  0  0  0  0  0  0
    2.5597    2.5965    0.5683 C   0  0  0  0  0  0  0  0  0  0  0  0
    6.9006    2.5464    2.0700 O   0  0  0  0  0  0  0  0  0  0  0  0
    4.3232    3.3096    4.3833 O   0  0  0  0  0  0  0  0  0  0  0  0
    4.3600    4.6972    2.0307 O   0  0  0  0  0  0  0  0  0  0  0  0
   -0.1185    0.4007   -0.4747 O   0  0  0  0  0  0  0  0  0  0  0  0
    7.8571   -2.5234    1.7509 C   0  0  0  0  0  0  0  0  0  0  0  0
    6.5967   -2.9367    2.1472 C   0  0  0  0  0  0  0  0  0  0  0  0
    0.4943    3.0212   -0.5792 N   0  0  0  0  0  0  0  0  0  0  0  0
    5.0993    3.8400    3.1744 P   0  0  0  0  0  0  0  0  0  0  0  0
    6.1848    4.8378    3.6953 O   0  0  0  0  0  0  0  0  0  0  0  0
    1.0870    0.8074   -0.0282 C   0  0  0  0  0  0  0  0  0  0  0  0
    4.7250    1.6020    1.7281 N   0  0  0  0  0  0  0  0  0  0  0  0
    2.0338   -0.1311    0.4093 C   0  0  0  0  0  0  0  0  0  0  0  0
    8.1788   -1.1840    1.5959 C   0  0  0  0  0  0  0  0  0  0  0  0
    4.7186    0.2005    1.6262 C   0  0  0  0  0  0  0  0  0  0  0  0
    3.2616    0.3175    0.9659 C   0  0  0  0  0  0  0  0  0  0  0  0
    5.5915    2.4000    2.2869 C   0  0  0  0  0  0  0  0  0  0  0  0
    5.5904   -1.9964    2.2072 C   0  0  0  0  0  0  0  0  0  0  0  0
    5.8232   -0.6524    1.8701 C   0  0  0  0  0  0  0  0  0  0  0  0
    3.4837    1.6782    1.0784 C   0  0  0  0  0  0  0  0  0  0  0  0
    7.1556   -0.2716    1.6921 C   0  0  0  0  0  0  0  0  0  0  0  0
    9.0248   -3.7419    1.3731 Cl  0  0  0  0  0  0  0  0  0  0  0  0
  1  2  1  0
  1  9  1  0
  1 12  2  0
  2 21  1  0
  3 18  2  0
  4 10  1  0
  5 10  1  0
  6 12  1  0
  7  8  1  0
  7 15  1  0
  7 23  1  0
  8 19  2  0
 10 11  1  0
 10 18  1  0
 12 14  1  0
 13 16  1  0
 13 18  1  0
 13 21  1  0
 14 17  1  0
 15 22  2  0
 16 17  1  0
 16 20  1  0
 17 21  2  0
 19 20  1  0
 20 22  1  0
M  END
$$$$
