
     RDKit          3D

 10 10  0  0  0  0  0  0  0  0999 V2000
  -16.5413   -6.7404    4.8065 C   0  0  0  0  0  0  0  0  0  0  0  0
  -14.0961   -6.2245    4.9960 C   0  0  0  0  0  0  0  0  0  0  0  0
  -17.0689   -6.1300    5.8966 C   0  0  0  0  0  0  0  0  0  0  0  0
  -18.4431   -6.1292    6.1293 C   0  0  0  0  0  0  0  0  0  0  0  0
  -18.7397   -7.3247    4.0711 C   0  0  0  0  0  0  0  0  0  0  0  0
  -19.2881   -6.7384    5.1876 C   0  0  0  0  0  0  0  0  0  0  0  0
  -15.1697   -6.8547    4.5932 N   0  0  0  0  0  0  0  0  0  0  0  0
  -17.3774   -7.3348    3.8547 C   0  0  0  0  0  0  0  0  0  0  0  0
  -13.9989   -5.2288    5.7215 N   0  0  0  0  0  0  0  0  0  0  0  0
  -12.9340   -6.6891    4.5090 N   0  0  0  0  0  0  0  0  0  0  0  0
  1  3  2  0
  1  7  1  0
  1  8  1  0
  2  7  2  3
  2  9  1  0
  2 10  1  0
  3  4  1  0
  4  6  2  0
  5  6  1  0
  5  8  2  0
M  END
$$$$
