
     RDKit          3D

 26 26  0  0  0  0  0  0  0  0999 V2000
  -21.2033   -8.5062    3.7402 C   0  0  0  0  0  0  0  0  0  0  0  0
  -14.6514   -5.6776    4.4667 C   0  0  0  0  0  0  0  0  0  0  0  0
  -20.7019   -6.3162    4.9161 C   0  0  0  0  0  0  0  0  0  0  0  0
  -12.3272   -6.5154    4.9804 C   0  0  0  0  0  0  0  0  0  0  0  0
  -12.3098   -3.4530    0.0559 C   0  0  0  0  0  0  0  0  0  0  0  0
  -11.8548   -4.5492    0.5042 C   0  0  0  0  0  0  0  0  0  0  0  0
  -12.7066   -6.8485    6.1497 O   0  0  0  0  0  0  0  0  0  0  0  0
  -10.6459   -6.7225    3.2457 N   0  0  0  0  0  0  0  0  0  0  0  0
  -11.0077   -6.6396    4.5429 N   0  0  0  0  0  0  0  0  0  0  0  0
  -11.9274   -3.0674   -2.2357 C   0  0  0  0  0  0  0  0  0  0  0  0
  -21.9885   -5.8605    5.0325 N   0  0  0  0  0  0  0  0  0  0  0  0
  -11.2871   -6.2951    2.2604 C   0  0  0  0  0  0  0  0  0  0  0  0
  -17.0250   -5.6141    5.0244 C   0  0  0  0  0  0  0  0  0  0  0  0
  -11.9506   -2.0716   -3.2420 C   0  0  0  0  0  0  0  0  0  0  0  0
  -13.3291   -6.2293    4.0081 C   0  0  0  0  0  0  0  0  0  0  0  0
  -11.9493   -5.3221    1.6754 C   0  0  0  0  0  0  0  0  0  0  0  0
  -11.7834   -0.9988   -3.4825 N   0  0  0  0  0  0  0  0  0  0  0  0
  -22.9211   -6.8709    4.8021 C   0  0  0  0  0  0  0  0  0  0  0  0
  -11.9282   -2.6813   -0.8940 C   0  0  0  0  0  0  0  0  0  0  0  0
  -22.3022   -9.1751    4.5521 C   0  0  0  0  0  0  0  0  0  0  0  0
  -20.4226   -7.7698    4.7422 C   0  0  0  0  0  0  0  0  0  0  0  0
  -19.4032   -5.6314    5.2794 C   0  0  0  0  0  0  0  0  0  0  0  0
  -22.7056   -8.1226    5.4507 O   0  0  0  0  0  0  0  0  0  0  0  0
  -19.1691   -5.0518    6.4314 O   0  0  0  0  0  0  0  0  0  0  0  0
  -15.8557   -6.6196    4.7227 C   0  0  0  0  0  0  0  0  0  0  0  0
  -18.2674   -6.2119    4.6310 O   0  0  0  0  0  0  0  0  0  0  0  0
  1 20  1  0
  1 21  1  0
  2 15  1  0
  2 25  1  0
  3 11  1  0
  3 21  1  0
  3 22  1  0
  4  7  2  0
  4  9  1  0
  4 15  1  0
  5  6  2  3
  5 19  1  0
  6 16  1  0
  8  9  1  0
  8 12  1  0
 10 14  1  0
 10 19  1  0
 11 18  1  0
 12 16  1  0
 13 25  1  0
 13 26  1  0
 14 17  2  0
 18 23  1  0
 20 23  1  0
 22 24  2  0
 22 26  1  0
M  END
$$$$
