
     RDKit          3D

 15 16  0  0  0  0  0  0  0  0999 V2000
  -12.6422   -6.5603    4.2502 N   0  0  0  0  0  0  0  0  0  0  0  0
  -19.8044   -7.4762    2.1868 C   0  0  0  0  0  0  0  0  0  0  0  0
  -13.6633   -5.8049    6.0033 N   0  0  0  0  0  0  0  0  0  0  0  0
  -11.6443   -7.0454    3.4057 C   0  0  0  0  0  0  0  0  0  0  0  0
  -16.0850   -5.8549    5.2596 C   0  0  0  0  0  0  0  0  0  0  0  0
  -20.3408   -7.7146    4.4869 C   0  0  0  0  0  0  0  0  0  0  0  0
  -20.6626   -7.9410    3.1427 C   0  0  0  0  0  0  0  0  0  0  0  0
  -12.5039   -6.1629    5.5018 C   0  0  0  0  0  0  0  0  0  0  0  0
  -16.8497   -6.1470    4.0275 C   0  0  0  0  0  0  0  0  0  0  0  0
  -14.5586   -6.0066    5.0131 C   0  0  0  0  0  0  0  0  0  0  0  0
  -19.0728   -7.1314    4.8284 C   0  0  0  0  0  0  0  0  0  0  0  0
  -13.9448   -6.4351    3.8854 N   0  0  0  0  0  0  0  0  0  0  0  0
  -10.3506   -7.0481    4.1676 O   0  0  0  0  0  0  0  0  0  0  0  0
  -18.5818   -6.9117    2.4919 C   0  0  0  0  0  0  0  0  0  0  0  0
  -18.2089   -6.7283    3.8111 C   0  0  0  0  0  0  0  0  0  0  0  0
  1  4  1  0
  1  8  1  0
  1 12  1  0
  2  7  2  0
  2 14  1  0
  3  8  1  0
  3 10  2  0
  4 13  1  0
  5  9  1  0
  5 10  1  0
  6  7  1  0
  6 11  2  0
  9 15  1  0
 10 12  1  0
 11 15  1  0
 14 15  2  0
M  END
$$$$
