
     RDKit          3D

 10 10  0  0  0  0  0  0  0  0999 V2000
  -11.8653   -6.8279    3.7554 O   0  0  0  0  0  0  0  0  0  0  0  0
  -14.0120   -6.0935    4.3559 C   0  0  0  0  0  0  0  0  0  0  0  0
  -17.5194   -6.0447    5.8878 C   0  0  0  0  0  0  0  0  0  0  0  0
  -16.9242   -6.0092    3.6975 C   0  0  0  0  0  0  0  0  0  0  0  0
  -16.4234   -6.1579    4.9839 C   0  0  0  0  0  0  0  0  0  0  0  0
  -12.2553   -6.7018    5.9213 O   0  0  0  0  0  0  0  0  0  0  0  0
  -18.6903   -5.8541    5.1218 C   0  0  0  0  0  0  0  0  0  0  0  0
  -12.6095   -6.5123    4.7636 C   0  0  0  0  0  0  0  0  0  0  0  0
  -15.0421   -6.4249    5.3410 C   0  0  0  0  0  0  0  0  0  0  0  0
  -18.3192   -5.8345    3.7970 C   0  0  0  0  0  0  0  0  0  0  0  0
  1  8  2  0
  2  8  1  0
  2  9  1  0
  3  5  1  0
  3  7  1  0
  4  5  1  0
  4 10  1  0
  5  9  1  0
  6  8  1  0
  7 10  1  0
M  END
$$$$
