
     RDKit          3D

 25 28  0  0  0  0  0  0  0  0999 V2000
  -16.2517   13.3674  -27.9121 C   0  0  0  0  0  0  0  0  0  0  0  0
  -21.1518   17.6367  -31.9851 C   0  0  0  0  0  0  0  0  0  0  0  0
  -14.9770   14.9494  -26.5527 C   0  0  0  0  0  0  0  0  0  0  0  0
  -18.2009   14.9699  -28.1237 C   0  0  0  0  0  0  0  0  0  0  0  0
  -23.1449   15.8881  -27.1262 C   0  0  0  0  0  0  0  0  0  0  0  0
  -18.9691   15.7261  -28.9696 C   0  0  0  0  0  0  0  0  0  0  0  0
  -21.8583   16.0089  -27.4606 C   0  0  0  0  0  0  0  0  0  0  0  0
  -24.0858   16.7215  -27.7013 C   0  0  0  0  0  0  0  0  0  0  0  0
  -21.9828   18.5810  -31.5351 N   0  0  0  0  0  0  0  0  0  0  0  0
  -23.7611   17.6538  -28.6156 C   0  0  0  0  0  0  0  0  0  0  0  0
  -22.4584   17.7095  -29.1859 C   0  0  0  0  0  0  0  0  0  0  0  0
  -15.3264   13.5214  -26.8722 C   0  0  0  0  0  0  0  0  0  0  0  0
  -24.6457   18.5400  -28.9711 F   0  0  0  0  0  0  0  0  0  0  0  0
  -18.8800   16.9744  -32.4369 C   0  0  0  0  0  0  0  0  0  0  0  0
  -20.1889   16.3885  -28.8424 N   0  0  0  0  0  0  0  0  0  0  0  0
  -16.4844   15.0492  -29.7125 C   0  0  0  0  0  0  0  0  0  0  0  0
  -22.3033   18.7683  -30.1702 C   0  0  0  0  0  0  0  0  0  0  0  0
  -19.3911   16.4820  -31.1750 N   0  0  0  0  0  0  0  0  0  0  0  0
  -21.4797   16.7700  -28.6214 C   0  0  0  0  0  0  0  0  0  0  0  0
  -20.8944   15.5031  -26.6622 O   0  0  0  0  0  0  0  0  0  0  0  0
  -19.9582   17.9984  -32.8056 C   0  0  0  0  0  0  0  0  0  0  0  0
  -20.8103   16.3950  -31.2853 C   0  0  0  0  0  0  0  0  0  0  0  0
  -16.9812   14.5029  -28.5517 C   0  0  0  0  0  0  0  0  0  0  0  0
  -18.5005   15.9924  -30.2204 C   0  0  0  0  0  0  0  0  0  0  0  0
  -17.2134   15.7768  -30.5454 N   0  0  0  0  0  0  0  0  0  0  0  0
  1 12  1  0
  1 23  1  0
  2  9  1  0
  2 21  1  0
  2 22  1  0
  3 12  1  0
  4  6  2  0
  4 23  1  0
  5  7  1  0
  5  8  2  0
  6 15  1  0
  6 24  1  0
  7 19  2  0
  7 20  1  0
  8 10  1  0
  9 17  1  0
 10 11  2  0
 10 13  1  0
 11 17  1  0
 11 19  1  0
 14 18  1  0
 14 21  1  0
 15 19  1  0
 16 23  1  0
 16 25  2  0
 18 22  1  0
 18 24  1  0
 24 25  1  0
M  END
$$$$
