
     RDKit          3D

 20 22  0  0  0  0  0  0  0  0999 V2000
  -22.2948   18.5335  -31.4593 C   0  0  0  0  0  0  0  0  0  0  0  0
  -22.2845   16.2571  -28.8143 C   0  0  0  0  0  0  0  0  0  0  0  0
  -23.0265   15.3322  -27.7547 C   0  0  0  0  0  0  0  0  0  0  0  0
  -23.7531   15.4702  -30.6260 C   0  0  0  0  0  0  0  0  0  0  0  0
  -15.8323   16.9284  -26.8517 C   0  0  0  0  0  0  0  0  0  0  0  0
  -21.0335   18.3322  -28.1856 C   0  0  0  0  0  0  0  0  0  0  0  0
  -19.1362   17.7341  -29.4416 C   0  0  0  0  0  0  0  0  0  0  0  0
  -24.7030   16.8831  -29.0403 O   0  0  0  0  0  0  0  0  0  0  0  0
  -20.3166   17.1969  -27.4280 C   0  0  0  0  0  0  0  0  0  0  0  0
  -20.5738   20.0296  -30.7916 O   0  0  0  0  0  0  0  0  0  0  0  0
  -21.2410   16.5528  -29.7733 C   0  0  0  0  0  0  0  0  0  0  0  0
  -21.0858   18.8733  -30.6958 C   0  0  0  0  0  0  0  0  0  0  0  0
  -16.9563   16.1682  -26.4104 C   0  0  0  0  0  0  0  0  0  0  0  0
  -20.8168   15.9188  -28.2241 C   0  0  0  0  0  0  0  0  0  0  0  0
  -14.8008   16.0710  -27.5330 C   0  0  0  0  0  0  0  0  0  0  0  0
  -18.7960   17.2685  -27.9582 C   0  0  0  0  0  0  0  0  0  0  0  0
  -18.1682   16.0516  -27.1519 C   0  0  0  0  0  0  0  0  0  0  0  0
  -23.3422   17.9006  -30.6415 C   0  0  0  0  0  0  0  0  0  0  0  0
  -23.6168   16.6652  -29.7577 C   0  0  0  0  0  0  0  0  0  0  0  0
  -20.6706   17.9400  -29.6227 C   0  0  0  0  0  0  0  0  0  0  0  0
  1 12  1  0
  1 18  1  0
  2  3  1  0
  2 11  1  0
  2 14  1  0
  2 19  1  0
  4 19  1  0
  5 13  1  0
  5 15  1  0
  6  9  1  0
  6 20  1  0
  7 16  1  0
  7 20  1  0
  8 19  1  0
  9 14  1  0
  9 16  1  0
 10 12  2  0
 11 20  1  0
 12 20  1  0
 13 17  1  0
 16 17  1  0
 18 19  1  0
M  END
$$$$
