
     RDKit          3D

 28 28  0  0  0  0  0  0  0  0999 V2000
   -8.2183    6.9629  -27.7322 O   0  0  0  0  0  0  0  0  0  0  0  0
   -9.3746    1.1711  -32.9256 O   0  0  0  0  0  0  0  0  0  0  0  0
   -8.3295    2.7233  -31.0508 C   0  0  0  0  0  0  0  0  0  0  0  0
   -9.5976    5.3460  -27.8667 N   0  0  0  0  0  0  0  0  0  0  0  0
   -5.0647   -1.6000  -30.1040 C   0  0  0  0  0  0  0  0  0  0  0  0
   -9.7681    2.9631  -31.2182 C   0  0  0  0  0  0  0  0  0  0  0  0
   -4.3348   -1.4765  -28.9865 C   0  0  0  0  0  0  0  0  0  0  0  0
   -8.2139    1.9459  -29.0483 O   0  0  0  0  0  0  0  0  0  0  0  0
  -10.9177    5.0792  -25.9312 O   0  0  0  0  0  0  0  0  0  0  0  0
   -8.2259    1.5660  -30.3025 O   0  0  0  0  0  0  0  0  0  0  0  0
  -11.4690    3.4863  -27.7322 C   0  0  0  0  0  0  0  0  0  0  0  0
  -11.4983    2.1715  -29.7426 O   0  0  0  0  0  0  0  0  0  0  0  0
  -10.3488    4.1662  -31.1776 O   0  0  0  0  0  0  0  0  0  0  0  0
  -10.5922    4.6024  -27.3393 C   0  0  0  0  0  0  0  0  0  0  0  0
   -9.1523    4.8604  -29.1186 C   0  0  0  0  0  0  0  0  0  0  0  0
   -5.0743   -2.9118  -30.6270 C   0  0  0  0  0  0  0  0  0  0  0  0
  -10.4839    3.0038  -29.1006 C   0  0  0  0  0  0  0  0  0  0  0  0
   -7.4085    3.2871  -33.3952 O   0  0  0  0  0  0  0  0  0  0  0  0
   -6.3518    4.0131  -30.6007 O   0  0  0  0  0  0  0  0  0  0  0  0
   -7.7514    4.2692  -30.8012 C   0  0  0  0  0  0  0  0  0  0  0  0
   -8.2415    5.3562  -31.5803 O   0  0  0  0  0  0  0  0  0  0  0  0
   -7.9759    5.0026  -29.5076 O   0  0  0  0  0  0  0  0  0  0  0  0
   -9.7873    3.9303  -29.8478 C   0  0  0  0  0  0  0  0  0  0  0  0
   -8.9335    5.9828  -26.9172 C   0  0  0  0  0  0  0  0  0  0  0  0
   -6.2029    1.7270  -32.1352 O   0  0  0  0  0  0  0  0  0  0  0  0
  -10.2283    2.1143  -32.3929 C   0  0  0  0  0  0  0  0  0  0  0  0
   -6.1058   -0.7297  -30.2570 O   0  0  0  0  0  0  0  0  0  0  0  0
   -7.3476    2.5800  -32.2801 C   0  0  0  0  0  0  0  0  0  0  0  0
  1 24  1  0
  2 26  1  0
  3  6  1  0
  3 10  1  0
  3 20  1  0
  3 28  1  0
  4 14  1  0
  4 15  1  0
  4 24  1  0
  5  7  2  0
  5 16  1  0
  5 27  1  0
  6 13  1  0
  6 26  1  0
  8 10  1  0
  9 14  2  0
 11 14  1  0
 11 17  1  0
 12 17  1  0
 13 23  1  0
 15 22  1  0
 15 23  1  0
 17 23  1  0
 18 28  2  0
 19 20  1  0
 20 21  1  0
 20 22  1  0
 25 28  1  0
M  END
$$$$
