
     RDKit          3D

 19 18  0  0  0  0  0  0  0  0999 V2000
    4.6690  -12.2448   12.9484 C   0  0  0  0  0  0  0  0  0  0  0  0
    3.7147   -7.7872   13.3869 O   0  0  0  0  0  0  0  0  0  0  0  0
    3.9492   -9.0134   16.8295 C   0  0  0  0  0  0  0  0  0  0  0  0
    6.0194  -13.1209   20.5501 O   0  0  0  0  0  0  0  0  0  0  0  0
    5.9336  -11.9502   19.9443 C   0  0  0  0  0  0  0  0  0  0  0  0
    3.9724  -14.5138   13.4779 C   0  0  0  0  0  0  0  0  0  0  0  0
    3.2731   -9.5946   15.8706 C   0  0  0  0  0  0  0  0  0  0  0  0
    3.3752  -13.1389   13.1483 C   0  0  0  0  0  0  0  0  0  0  0  0
    6.0009  -10.9003   20.7198 C   0  0  0  0  0  0  0  0  0  0  0  0
    5.3719  -10.7131   17.8821 C   0  0  0  0  0  0  0  0  0  0  0  0
    4.8434   -9.5459   17.7354 C   0  0  0  0  0  0  0  0  0  0  0  0
    2.2722  -10.1998   12.3463 C   0  0  0  0  0  0  0  0  0  0  0  0
    2.0991   -6.8946   14.7586 C   0  0  0  0  0  0  0  0  0  0  0  0
    1.4771  -11.6063   14.1476 C   0  0  0  0  0  0  0  0  0  0  0  0
    2.5735   -9.4370   14.7297 C   0  0  0  0  0  0  0  0  0  0  0  0
    2.0262  -13.0075   13.8570 C   0  0  0  0  0  0  0  0  0  0  0  0
    2.3837  -10.5056   13.8361 N   0  0  0  0  0  0  0  0  0  0  0  0
    5.7620  -11.7004   18.5309 C   0  0  0  0  0  0  0  0  0  0  0  0
    2.7041   -8.0590   14.1666 C   0  0  0  0  0  0  0  0  0  0  0  0
  1  8  1  0
  2 19  1  0
  3  7  1  0
  3 11  2  3
  4  5  1  0
  5  9  2  0
  5 18  1  0
  6  8  1  0
  7 15  1  0
  8 16  1  0
 10 11  1  0
 10 18  2  3
 12 17  1  0
 13 19  1  0
 14 16  2  3
 14 17  1  0
 15 17  1  0
 15 19  1  0
M  END
$$$$
