
     RDKit          3D

  8  8  0  0  0  0  0  0  0  0999 V2000
   13.6484   36.1519   14.5016 N   0  0  0  0  0  0  0  0  0  0  0  0
   13.1628   35.3175   12.2166 C   0  0  0  0  0  0  0  0  0  0  0  0
   13.8362   36.0399   15.9190 C   0  0  0  0  0  0  0  0  0  0  0  0
   13.1992   35.0143   13.7843 C   0  0  0  0  0  0  0  0  0  0  0  0
   12.2897   34.2095   15.9540 C   0  0  0  0  0  0  0  0  0  0  0  0
   12.7520   33.8752   14.6069 C   0  0  0  0  0  0  0  0  0  0  0  0
   12.6816   35.4469   16.5882 C   0  0  0  0  0  0  0  0  0  0  0  0
   11.1369   33.4645   16.5986 C   0  0  0  0  0  0  0  0  0  0  0  0
  1  3  1  0
  1  4  2  0
  2  4  1  0
  3  7  1  0
  4  6  1  0
  5  6  1  0
  5  7  1  0
  5  8  1  0
M  END
$$$$
