
     RDKit          3D

 10  9  0  0  0  0  0  0  0  0999 V2000
   -7.5858    3.7256  -30.5795 C   0  0  0  0  0  0  0  0  0  0  0  0
   -8.9322    4.4596  -30.6007 C   0  0  0  0  0  0  0  0  0  0  0  0
   -8.7881    5.0052  -27.9597 C   0  0  0  0  0  0  0  0  0  0  0  0
  -10.0860    4.7811  -28.5069 N   0  0  0  0  0  0  0  0  0  0  0  0
   -8.4166    1.4674  -31.8388 O   0  0  0  0  0  0  0  0  0  0  0  0
  -10.0372    3.9000  -29.7160 C   0  0  0  0  0  0  0  0  0  0  0  0
   -7.4351    2.6045  -31.9218 P   0  0  0  0  0  0  0  0  0  0  0  0
   -7.5980    3.4143  -33.2491 O   0  0  0  0  0  0  0  0  0  0  0  0
   -8.2705    6.4339  -27.9136 C   0  0  0  0  0  0  0  0  0  0  0  0
   -5.9666    2.0493  -31.9618 O   0  0  0  0  0  0  0  0  0  0  0  0
  1  2  1  0
  1  7  1  0
  2  6  1  0
  3  4  1  0
  3  9  1  0
  4  6  1  0
  5  7  1  0
  7  8  1  0
  7 10  1  0
M  END
$$$$
