
     RDKit          3D

 21 21  0  0  0  0  0  0  0  0999 V2000
  -11.3558    4.7211  -30.5129 O   0  0  0  0  0  0  0  0  0  0  0  0
   -9.7111    2.4246  -32.1484 C   0  0  0  0  0  0  0  0  0  0  0  0
   -7.1985    4.5579  -30.7630 C   0  0  0  0  0  0  0  0  0  0  0  0
   -7.8310    4.9655  -28.4341 O   0  0  0  0  0  0  0  0  0  0  0  0
   -8.6488    6.0498  -28.1128 C   0  0  0  0  0  0  0  0  0  0  0  0
  -10.7568    5.3045  -26.8931 O   0  0  0  0  0  0  0  0  0  0  0  0
  -10.6680    3.5422  -30.1335 C   0  0  0  0  0  0  0  0  0  0  0  0
   -7.1107    2.1316  -31.8965 P   0  0  0  0  0  0  0  0  0  0  0  0
   -9.9515    4.0029  -28.7652 C   0  0  0  0  0  0  0  0  0  0  0  0
   -9.0072    5.1369  -29.2315 C   0  0  0  0  0  0  0  0  0  0  0  0
   -6.8202    3.2324  -30.5652 O   0  0  0  0  0  0  0  0  0  0  0  0
   -9.4532    3.4470  -31.0551 C   0  0  0  0  0  0  0  0  0  0  0  0
   -7.2643    3.3323  -33.0866 O   0  0  0  0  0  0  0  0  0  0  0  0
   -5.6137    1.7285  -32.3506 O   0  0  0  0  0  0  0  0  0  0  0  0
   -9.8507    4.1651  -27.1897 C   0  0  0  0  0  0  0  0  0  0  0  0
   -8.7080    4.8019  -30.7357 C   0  0  0  0  0  0  0  0  0  0  0  0
   -8.9933    6.0956  -31.4015 O   0  0  0  0  0  0  0  0  0  0  0  0
  -11.0085    2.0102  -32.2547 O   0  0  0  0  0  0  0  0  0  0  0  0
  -11.4764    2.4827  -29.7625 O   0  0  0  0  0  0  0  0  0  0  0  0
   -7.3204    0.8447  -30.9235 O   0  0  0  0  0  0  0  0  0  0  0  0
   -8.7514    1.5563  -32.7217 O   0  0  0  0  0  0  0  0  0  0  0  0
  1  7  1  0
  2 12  1  0
  2 18  2  0
  2 21  1  0
  3 11  1  0
  3 16  1  0
  4  5  1  0
  5 10  1  0
  6 15  1  0
  7  9  1  0
  7 12  1  0
  7 19  1  0
  8 11  1  0
  8 13  1  0
  8 14  1  0
  8 20  1  0
  9 10  1  0
  9 15  1  0
 10 16  1  0
 12 16  1  0
 16 17  1  0
M  END
$$$$
