
     RDKit          3D

 26 27  0  0  0  0  0  0  0  0999 V2000
   -6.3679   -2.5896  -31.8059 C   0  0  0  0  0  0  0  0  0  0  0  0
   -8.9202    4.2466  -29.4684 C   0  0  0  0  0  0  0  0  0  0  0  0
   -8.1603    7.1057  -27.1094 C   0  0  0  0  0  0  0  0  0  0  0  0
   -6.3068    3.7943  -30.1922 O   0  0  0  0  0  0  0  0  0  0  0  0
   -7.1919    2.3812  -32.2396 P   0  0  0  0  0  0  0  0  0  0  0  0
   -5.7991    1.8698  -32.2914 O   0  0  0  0  0  0  0  0  0  0  0  0
   -9.8181    4.7780  -27.1444 O   0  0  0  0  0  0  0  0  0  0  0  0
   -3.4701   -3.9500  -30.0712 O   0  0  0  0  0  0  0  0  0  0  0  0
   -4.6038   -3.9808  -30.5933 C   0  0  0  0  0  0  0  0  0  0  0  0
   -7.5922   -0.0736  -32.6036 C   0  0  0  0  0  0  0  0  0  0  0  0
  -10.7739    4.1198  -28.0904 C   0  0  0  0  0  0  0  0  0  0  0  0
   -5.2030   -5.0777  -30.8361 O   0  0  0  0  0  0  0  0  0  0  0  0
   -9.0126    5.9203  -27.6284 C   0  0  0  0  0  0  0  0  0  0  0  0
   -8.6319    4.0969  -30.9757 C   0  0  0  0  0  0  0  0  0  0  0  0
   -4.7904   -1.6514  -30.1714 O   0  0  0  0  0  0  0  0  0  0  0  0
   -8.0932    1.0321  -31.9297 C   0  0  0  0  0  0  0  0  0  0  0  0
   -7.5422    3.2602  -33.4249 O   0  0  0  0  0  0  0  0  0  0  0  0
  -10.8477    3.5717  -30.6725 C   0  0  0  0  0  0  0  0  0  0  0  0
   -7.1983    3.5834  -31.0628 C   0  0  0  0  0  0  0  0  0  0  0  0
   -5.2689   -2.6454  -30.9292 C   0  0  0  0  0  0  0  0  0  0  0  0
  -10.4027    4.4368  -29.4861 C   0  0  0  0  0  0  0  0  0  0  0  0
   -8.2629    5.4081  -28.8827 C   0  0  0  0  0  0  0  0  0  0  0  0
  -11.6203    2.4717  -30.1652 O   0  0  0  0  0  0  0  0  0  0  0  0
   -8.1987    6.4332  -29.7990 O   0  0  0  0  0  0  0  0  0  0  0  0
   -6.8525   -1.1620  -31.9173 C   0  0  0  0  0  0  0  0  0  0  0  0
   -9.6279    3.0786  -31.3502 O   0  0  0  0  0  0  0  0  0  0  0  0
  1 20  1  0
  1 25  1  0
  2 14  1  0
  2 21  1  0
  2 22  1  0
  3 13  1  0
  4 19  2  0
  5  6  1  0
  5 16  1  0
  5 17  1  0
  5 19  1  0
  7 11  1  0
  7 13  1  0
  8  9  2  0
  9 12  1  0
  9 20  1  0
 10 16  1  0
 10 25  1  0
 11 21  1  0
 13 22  1  0
 14 19  1  0
 14 26  1  0
 15 20  1  0
 18 21  1  0
 18 23  1  0
 18 26  1  0
 22 24  1  0
M  END
$$$$
