
     RDKit          3D

 15 15  0  0  0  0  0  0  0  0999 V2000
  -10.3439    3.8546  -26.7329 O   0  0  0  0  0  0  0  0  0  0  0  0
   -8.3475    1.4919  -31.9092 O   0  0  0  0  0  0  0  0  0  0  0  0
   -9.0178    3.2848  -29.1077 C   0  0  0  0  0  0  0  0  0  0  0  0
  -11.1870    3.3299  -28.7304 O   0  0  0  0  0  0  0  0  0  0  0  0
   -9.0850    5.0577  -31.6232 C   0  0  0  0  0  0  0  0  0  0  0  0
   -9.6199    5.4361  -28.2564 N   0  0  0  0  0  0  0  0  0  0  0  0
   -8.7670    5.5997  -29.3020 C   0  0  0  0  0  0  0  0  0  0  0  0
   -5.8724    1.9181  -32.0347 O   0  0  0  0  0  0  0  0  0  0  0  0
  -10.0456    3.9278  -28.1168 C   0  0  0  0  0  0  0  0  0  0  0  0
   -7.4022    3.3880  -33.3038 O   0  0  0  0  0  0  0  0  0  0  0  0
   -7.3081    2.5825  -31.9734 P   0  0  0  0  0  0  0  0  0  0  0  0
   -7.3665    3.5878  -30.7154 O   0  0  0  0  0  0  0  0  0  0  0  0
   -9.0989    6.5059  -31.5856 O   0  0  0  0  0  0  0  0  0  0  0  0
   -7.6810    6.3304  -29.1699 O   0  0  0  0  0  0  0  0  0  0  0  0
   -8.6500    4.4174  -30.2266 C   0  0  0  0  0  0  0  0  0  0  0  0
  1  9  1  0
  2 11  1  0
  3  9  1  0
  3 15  1  0
  4  9  1  0
  5 13  1  0
  5 15  1  0
  6  7  1  0
  6  9  1  0
  7 14  2  0
  7 15  1  0
  8 11  1  0
 10 11  1  0
 11 12  1  0
 12 15  1  0
M  END
$$$$
