
     RDKit          3D

  9  8  0  0  0  0  0  0  0  0999 V2000
   -7.4507    3.5586  -33.4145 O   0  0  0  0  0  0  0  0  0  0  0  0
   -8.5586    5.3969  -29.1192 C   0  0  0  0  0  0  0  0  0  0  0  0
  -10.0413    3.8478  -27.7717 S   0  0  0  0  0  0  0  0  0  0  0  0
   -8.6139    3.8246  -31.0326 C   0  0  0  0  0  0  0  0  0  0  0  0
   -7.6004    2.8105  -32.0558 P   0  0  0  0  0  0  0  0  0  0  0  0
   -7.8360    4.2846  -29.8108 C   0  0  0  0  0  0  0  0  0  0  0  0
   -9.9667    4.9193  -29.0854 N   0  0  0  0  0  0  0  0  0  0  0  0
   -8.2010    1.4370  -32.2138 O   0  0  0  0  0  0  0  0  0  0  0  0
   -6.1346    2.6978  -31.4814 O   0  0  0  0  0  0  0  0  0  0  0  0
  1  5  1  0
  2  6  1  0
  2  7  1  0
  3  7  1  0
  4  5  1  0
  4  6  1  0
  5  8  1  0
  5  9  1  0
M  END
$$$$
