
     RDKit          3D

 19 20  0  0  0  0  0  0  0  0999 V2000
  -17.6563   14.5500  -27.3084 C   0  0  0  0  0  0  0  0  0  0  0  0
  -19.2558   17.9871  -30.9794 O   0  0  0  0  0  0  0  0  0  0  0  0
  -14.0255   14.4507  -27.5368 F   0  0  0  0  0  0  0  0  0  0  0  0
  -18.8522   16.7442  -30.4966 C   0  0  0  0  0  0  0  0  0  0  0  0
  -22.7904   15.0290  -29.0239 O   0  0  0  0  0  0  0  0  0  0  0  0
  -21.2556   16.8241  -29.6886 C   0  0  0  0  0  0  0  0  0  0  0  0
  -21.4872   17.4092  -28.1493 S   0  0  0  0  0  0  0  0  0  0  0  0
  -19.8671   16.1317  -29.6255 C   0  0  0  0  0  0  0  0  0  0  0  0
  -15.3518   14.7535  -27.8639 C   0  0  0  0  0  0  0  0  0  0  0  0
  -15.6541   15.5712  -28.9235 C   0  0  0  0  0  0  0  0  0  0  0  0
  -16.9867   15.8472  -29.2079 C   0  0  0  0  0  0  0  0  0  0  0  0
  -17.9762   15.4153  -28.3097 C   0  0  0  0  0  0  0  0  0  0  0  0
  -20.4911   18.0005  -27.6091 O   0  0  0  0  0  0  0  0  0  0  0  0
  -22.6733   17.2673  -27.6445 O   0  0  0  0  0  0  0  0  0  0  0  0
  -23.7124   16.6722  -30.4626 C   0  0  0  0  0  0  0  0  0  0  0  0
  -16.3472   14.2171  -27.0788 C   0  0  0  0  0  0  0  0  0  0  0  0
  -19.3341   15.7914  -28.3709 O   0  0  0  0  0  0  0  0  0  0  0  0
  -22.5435   16.0047  -29.8708 C   0  0  0  0  0  0  0  0  0  0  0  0
  -17.3675   16.5377  -30.4464 C   0  0  0  0  0  0  0  0  0  0  0  0
  1 12  1  0
  1 16  2  0
  2  4  1  0
  3  9  1  0
  4  8  1  0
  4 19  1  0
  5 18  1  0
  6  7  1  0
  6  8  1  0
  6 18  1  0
  7 13  1  0
  7 14  1  0
  8 17  1  0
  9 10  2  0
  9 16  1  0
 10 11  1  0
 11 12  2  0
 11 19  1  0
 12 17  1  0
 15 18  1  0
M  END
$$$$
