
     RDKit          3D

 20 21  0  0  0  0  0  0  0  0999 V2000
  -18.3887   15.0667  -29.5807 C   0  0  0  0  0  0  0  0  0  0  0  0
  -19.4630   14.6705  -32.7709 C   0  0  0  0  0  0  0  0  0  0  0  0
  -20.4054   13.6429  -32.9274 C   0  0  0  0  0  0  0  0  0  0  0  0
  -18.6729   16.2749  -30.1241 C   0  0  0  0  0  0  0  0  0  0  0  0
  -19.9960   15.8228  -32.1485 N   0  0  0  0  0  0  0  0  0  0  0  0
  -17.6345   14.9471  -28.4100 C   0  0  0  0  0  0  0  0  0  0  0  0
  -20.1316   20.6087  -29.8588 N   0  0  0  0  0  0  0  0  0  0  0  0
  -19.3088   17.9936  -31.5295 C   0  0  0  0  0  0  0  0  0  0  0  0
  -18.2171   14.6072  -32.8253 O   0  0  0  0  0  0  0  0  0  0  0  0
  -19.1879   16.5983  -31.4471 C   0  0  0  0  0  0  0  0  0  0  0  0
  -18.4035   17.4063  -29.4228 C   0  0  0  0  0  0  0  0  0  0  0  0
  -17.6233   17.3233  -28.2353 C   0  0  0  0  0  0  0  0  0  0  0  0
  -18.9839   18.4890  -30.1202 C   0  0  0  0  0  0  0  0  0  0  0  0
  -18.1578   20.4339  -30.8296 O   0  0  0  0  0  0  0  0  0  0  0  0
  -16.2773   15.9925  -26.5422 C   0  0  0  0  0  0  0  0  0  0  0  0
  -19.0710   19.8728  -30.0854 C   0  0  0  0  0  0  0  0  0  0  0  0
  -15.4665   14.9362  -26.4290 O   0  0  0  0  0  0  0  0  0  0  0  0
  -16.0786   17.1723  -25.7512 C   0  0  0  0  0  0  0  0  0  0  0  0
  -17.1785   16.0837  -27.7322 C   0  0  0  0  0  0  0  0  0  0  0  0
  -20.0102   22.0898  -29.9660 C   0  0  0  0  0  0  0  0  0  0  0  0
  1  4  1  0
  1  6  2  0
  2  3  1  0
  2  5  1  0
  2  9  2  0
  4 10  1  0
  4 11  2  0
  5 10  1  0
  6 19  1  0
  7 16  1  0
  7 20  1  0
  8 10  1  0
  8 13  1  0
 11 12  1  0
 11 13  1  0
 12 19  2  0
 13 16  1  0
 14 16  2  0
 15 17  1  0
 15 18  1  0
 15 19  1  0
M  END
$$$$
