
     RDKit          3D

 29 32  0  0  0  0  0  0  0  0999 V2000
  -16.1697   15.4798  -27.3064 C   0  0  0  0  0  0  0  0  0  0  0  0
  -19.3520   18.0591  -26.8036 C   0  0  0  0  0  0  0  0  0  0  0  0
  -19.2896   16.6030  -28.7460 N   0  0  0  0  0  0  0  0  0  0  0  0
  -14.7528   13.1025  -27.5194 C   0  0  0  0  0  0  0  0  0  0  0  0
  -20.8987   17.4857  -24.9840 C   0  0  0  0  0  0  0  0  0  0  0  0
  -20.4757   15.8870  -26.7446 C   0  0  0  0  0  0  0  0  0  0  0  0
  -16.0005   13.2177  -28.1693 C   0  0  0  0  0  0  0  0  0  0  0  0
  -20.0233   18.4221  -25.5957 C   0  0  0  0  0  0  0  0  0  0  0  0
  -19.7777   16.0778  -31.1693 C   0  0  0  0  0  0  0  0  0  0  0  0
  -19.1820   17.1893  -31.7375 C   0  0  0  0  0  0  0  0  0  0  0  0
  -17.8672   14.7395  -28.5643 N   0  0  0  0  0  0  0  0  0  0  0  0
  -20.0469   16.0833  -29.7741 N   0  0  0  0  0  0  0  0  0  0  0  0
  -18.9835   15.9968  -33.8315 N   0  0  0  0  0  0  0  0  0  0  0  0
  -18.2564   16.0668  -28.0240 C   0  0  0  0  0  0  0  0  0  0  0  0
  -19.7487   19.6430  -25.0547 O   0  0  0  0  0  0  0  0  0  0  0  0
  -16.8422   20.5694  -27.8283 C   0  0  0  0  0  0  0  0  0  0  0  0
  -19.6008   14.8722  -33.2409 C   0  0  0  0  0  0  0  0  0  0  0  0
  -18.4945   18.9712  -27.4302 O   0  0  0  0  0  0  0  0  0  0  0  0
  -16.5360   18.8262  -29.4799 O   0  0  0  0  0  0  0  0  0  0  0  0
  -16.0290   19.5066  -28.3809 C   0  0  0  0  0  0  0  0  0  0  0  0
  -19.5019   16.7351  -27.3685 N   0  0  0  0  0  0  0  0  0  0  0  0
  -18.7579   17.1492  -33.0395 C   0  0  0  0  0  0  0  0  0  0  0  0
  -17.0624   16.4464  -27.3793 N   0  0  0  0  0  0  0  0  0  0  0  0
  -14.2264   14.1686  -26.8155 C   0  0  0  0  0  0  0  0  0  0  0  0
  -14.9476   15.3774  -26.6811 C   0  0  0  0  0  0  0  0  0  0  0  0
  -18.2589   20.2685  -27.7720 C   0  0  0  0  0  0  0  0  0  0  0  0
  -20.0277   14.9136  -31.9083 C   0  0  0  0  0  0  0  0  0  0  0  0
  -21.1179   16.1981  -25.6152 C   0  0  0  0  0  0  0  0  0  0  0  0
  -16.6811   14.3961  -28.0710 C   0  0  0  0  0  0  0  0  0  0  0  0
  1 23  1  0
  1 25  2  0
  1 29  1  0
  2  8  1  0
  2 18  1  0
  2 21  1  0
  3 12  1  0
  3 14  1  0
  3 21  1  0
  4  7  1  0
  4 24  2  0
  5  8  2  0
  5 28  1  0
  6 21  1  0
  6 28  2  0
  7 29  2  0
  8 15  1  0
  9 10  2  0
  9 12  1  0
  9 27  1  0
 10 22  1  0
 11 14  2  0
 11 29  1  0
 13 17  1  0
 13 22  2  0
 14 23  1  0
 16 20  1  0
 16 26  1  0
 17 27  2  0
 18 26  1  0
 19 20  1  0
 24 25  1  0
M  END
$$$$
