
     RDKit          3D

  9  8  0  0  0  0  0  0  0  0999 V2000
   60.9886   50.9334  109.9911 O   0  0  0  0  0  0  0  0  0  0  0  0
   62.2610   52.7726  108.1023 O   0  0  0  0  0  0  0  0  0  0  0  0
   62.3559   50.7553  109.9170 C   0  0  0  0  0  0  0  0  0  0  0  0
   64.5619   52.3150  110.7006 N   0  0  0  0  0  0  0  0  0  0  0  0
   62.9512   53.0815  109.1168 C   0  0  0  0  0  0  0  0  0  0  0  0
   63.0561   52.0712  110.2577 C   0  0  0  0  0  0  0  0  0  0  0  0
   64.5665   54.0940  110.6083 C   0  0  0  0  0  0  0  0  0  0  0  0
   62.7485   49.5321  110.7111 C   0  0  0  0  0  0  0  0  0  0  0  0
   63.8758   54.1010  109.2894 O   0  0  0  0  0  0  0  0  0  0  0  0
  1  3  1  0
  2  5  2  0
  3  6  1  0
  3  8  1  0
  4  6  1  0
  5  6  1  0
  5  9  1  0
  7  9  1  0
M  END
$$$$
