
     RDKit          3D

 30 31  0  0  0  0  0  0  0  0999 V2000
    4.2439  -11.6411   16.3224 C   0  0  0  0  0  0  0  0  0  0  0  0
    2.9097   -9.5495   16.0705 C   0  0  0  0  0  0  0  0  0  0  0  0
    1.9952  -11.5805   15.1718 C   0  0  0  0  0  0  0  0  0  0  0  0
    3.0419   -7.6579   14.4280 C   0  0  0  0  0  0  0  0  0  0  0  0
    6.0428  -11.8809   18.2014 C   0  0  0  0  0  0  0  0  0  0  0  0
    4.5620   -9.9191   17.9880 C   0  0  0  0  0  0  0  0  0  0  0  0
    1.3171   -9.4490   14.2067 C   0  0  0  0  0  0  0  0  0  0  0  0
    0.3260   -9.5111   17.9106 O   0  0  0  0  0  0  0  0  0  0  0  0
    4.8548  -12.7700   15.4975 C   0  0  0  0  0  0  0  0  0  0  0  0
    6.2292  -11.3656   19.6237 C   0  0  0  0  0  0  0  0  0  0  0  0
    1.9788   -7.4087   15.3953 O   0  0  0  0  0  0  0  0  0  0  0  0
   -0.0492  -11.4948   18.7289 N   0  0  0  0  0  0  0  0  0  0  0  0
    0.5902  -10.2548   18.9304 C   0  0  0  0  0  0  0  0  0  0  0  0
    3.6583   -8.8263   17.4316 S   0  0  0  0  0  0  0  0  0  0  0  0
    2.2357   -8.7396   15.0854 C   0  0  0  0  0  0  0  0  0  0  0  0
    1.1598  -10.8824   14.2706 C   0  0  0  0  0  0  0  0  0  0  0  0
    4.9216  -11.1474   17.4760 C   0  0  0  0  0  0  0  0  0  0  0  0
    4.2246  -12.2338   11.2936 C   0  0  0  0  0  0  0  0  0  0  0  0
    5.0802  -11.4067   13.4171 C   0  0  0  0  0  0  0  0  0  0  0  0
    6.2046  -12.4633   20.6645 C   0  0  0  0  0  0  0  0  0  0  0  0
    2.8075   -8.4103   18.4935 O   0  0  0  0  0  0  0  0  0  0  0  0
    1.2082  -10.1337   19.9772 O   0  0  0  0  0  0  0  0  0  0  0  0
    4.7748  -11.1960   12.0879 C   0  0  0  0  0  0  0  0  0  0  0  0
    4.0065  -13.4952   11.8639 C   0  0  0  0  0  0  0  0  0  0  0  0
    3.0627  -10.9301   15.8560 C   0  0  0  0  0  0  0  0  0  0  0  0
    4.3586   -7.6887   16.9281 O   0  0  0  0  0  0  0  0  0  0  0  0
    6.0644  -13.7010   20.2946 O   0  0  0  0  0  0  0  0  0  0  0  0
    4.7288  -12.6199   14.0321 C   0  0  0  0  0  0  0  0  0  0  0  0
    5.9420  -11.9882   22.0581 C   0  0  0  0  0  0  0  0  0  0  0  0
    4.2541  -13.6724   13.2352 C   0  0  0  0  0  0  0  0  0  0  0  0
  1  9  1  0
  1 17  1  0
  1 25  1  0
  2 14  1  0
  2 15  1  0
  2 25  1  0
  3 16  2  0
  3 25  1  0
  4 15  1  0
  5 10  1  0
  5 17  1  0
  6 14  1  0
  6 17  2  0
  7 15  1  0
  7 16  1  0
  8 13  2  0
  9 28  1  0
 10 20  1  0
 11 15  1  0
 12 13  1  0
 13 22  1  0
 14 21  1  0
 14 26  1  0
 18 23  1  0
 18 24  1  0
 19 23  2  0
 19 28  1  0
 20 27  1  0
 20 29  1  0
 24 30  2  0
 28 30  1  0
M  END
$$$$
