
     RDKit          3D

 24 26  0  0  0  0  0  0  0  0999 V2000
    3.1727  -13.3813   15.5377 C   0  0  0  0  0  0  0  0  0  0  0  0
    2.6085  -13.7188   14.1173 C   0  0  0  0  0  0  0  0  0  0  0  0
    3.1790  -12.1052   12.2210 C   0  0  0  0  0  0  0  0  0  0  0  0
    2.7895  -11.1088   14.5482 C   0  0  0  0  0  0  0  0  0  0  0  0
    1.3151  -10.6247   12.6652 O   0  0  0  0  0  0  0  0  0  0  0  0
    5.9957  -12.2025   20.0296 C   0  0  0  0  0  0  0  0  0  0  0  0
    2.3805   -6.4840   16.6053 C   0  0  0  0  0  0  0  0  0  0  0  0
    3.3104  -11.8478   10.9197 O   0  0  0  0  0  0  0  0  0  0  0  0
    3.7573  -13.2360   13.0796 C   0  0  0  0  0  0  0  0  0  0  0  0
    2.7231  -10.8589   13.0380 C   0  0  0  0  0  0  0  0  0  0  0  0
    4.9063  -10.3194   17.2599 C   0  0  0  0  0  0  0  0  0  0  0  0
    3.9498  -11.3376   16.7963 C   0  0  0  0  0  0  0  0  0  0  0  0
    2.7331   -8.6597   15.6314 C   0  0  0  0  0  0  0  0  0  0  0  0
    3.5826   -9.6992   12.6224 C   0  0  0  0  0  0  0  0  0  0  0  0
    6.0426  -10.8557   18.0915 C   0  0  0  0  0  0  0  0  0  0  0  0
    2.6163   -7.6996   14.5852 O   0  0  0  0  0  0  0  0  0  0  0  0
    5.7367  -12.8841   22.4538 O   0  0  0  0  0  0  0  0  0  0  0  0
    5.7887  -10.7087   19.5764 C   0  0  0  0  0  0  0  0  0  0  0  0
    3.7905  -11.9299   15.3749 C   0  0  0  0  0  0  0  0  0  0  0  0
    2.0692   -6.4130   15.1003 C   0  0  0  0  0  0  0  0  0  0  0  0
    6.0565  -12.4249   18.2489 C   0  0  0  0  0  0  0  0  0  0  0  0
    2.5481   -7.9342   16.9225 C   0  0  0  0  0  0  0  0  0  0  0  0
    2.0773  -10.0426   15.4065 C   0  0  0  0  0  0  0  0  0  0  0  0
    6.2523  -11.9343   21.6032 C   0  0  0  0  0  0  0  0  0  0  0  0
  1  2  1  0
  1 19  1  0
  2  9  1  0
  3  8  1  0
  3  9  1  0
  3 10  1  0
  4 10  1  0
  4 19  1  0
  4 23  1  0
  5 10  1  0
  6 18  1  0
  6 21  1  0
  6 24  1  0
  7 20  1  0
  7 22  1  0
 10 14  1  0
 11 12  1  0
 11 15  1  0
 12 19  1  0
 13 16  1  0
 13 22  1  0
 13 23  1  0
 15 18  1  0
 15 21  1  0
 16 20  1  0
 17 24  1  0
M  END
$$$$
