
     RDKit          3D

 23 23  0  0  0  0  0  0  0  0999 V2000
    2.5042   -8.8089   18.0370 C   0  0  0  0  0  0  0  0  0  0  0  0
    3.2323  -11.6746   11.1158 O   0  0  0  0  0  0  0  0  0  0  0  0
    3.5955  -12.2082   14.7830 C   0  0  0  0  0  0  0  0  0  0  0  0
    5.9256  -11.0095   20.0378 C   0  0  0  0  0  0  0  0  0  0  0  0
    6.1050  -11.8937   18.7536 C   0  0  0  0  0  0  0  0  0  0  0  0
    3.9062   -8.8262   15.3638 O   0  0  0  0  0  0  0  0  0  0  0  0
    2.9512  -10.9504   14.7145 C   0  0  0  0  0  0  0  0  0  0  0  0
    1.0353   -9.8161   19.8213 N   0  0  0  0  0  0  0  0  0  0  0  0
    3.3268  -10.0409   15.8896 C   0  0  0  0  0  0  0  0  0  0  0  0
    3.2831   -8.0533   14.2907 C   0  0  0  0  0  0  0  0  0  0  0  0
    6.0769  -12.0824   21.1594 C   0  0  0  0  0  0  0  0  0  0  0  0
    2.1884   -9.7189   16.9242 C   0  0  0  0  0  0  0  0  0  0  0  0
    0.0835  -10.7901   17.8479 N   0  0  0  0  0  0  0  0  0  0  0  0
    3.4395  -13.4706   14.0020 C   0  0  0  0  0  0  0  0  0  0  0  0
    1.9252   -8.9577   19.3079 C   0  0  0  0  0  0  0  0  0  0  0  0
    3.3730   -7.7962   17.8234 O   0  0  0  0  0  0  0  0  0  0  0  0
    4.4592  -12.2335   15.9493 C   0  0  0  0  0  0  0  0  0  0  0  0
    4.3689  -10.9972   16.6363 C   0  0  0  0  0  0  0  0  0  0  0  0
    0.1285  -10.5708   19.1628 C   0  0  0  0  0  0  0  0  0  0  0  0
    4.2955  -12.1784   12.0319 C   0  0  0  0  0  0  0  0  0  0  0  0
    3.8576  -13.5174   12.5863 C   0  0  0  0  0  0  0  0  0  0  0  0
    0.9931   -9.8393   21.3709 C   0  0  0  0  0  0  0  0  0  0  0  0
    0.9487  -10.3310   16.9355 C   0  0  0  0  0  0  0  0  0  0  0  0
  1 12  1  0
  1 15  2  0
  1 16  1  0
  2 20  1  0
  3  7  1  0
  3 14  1  0
  3 17  1  0
  4  5  1  0
  4 11  1  0
  6  9  1  0
  6 10  1  0
  7  9  1  0
  8 15  1  0
  8 19  1  0
  8 22  1  0
  9 12  1  0
  9 18  1  0
 12 23  1  0
 13 19  2  0
 13 23  1  0
 14 21  1  0
 17 18  1  0
 20 21  1  0
M  END
$$$$
