
     RDKit          3D

 10  9  0  0  0  0  0  0  0  0999 V2000
   -7.7855  -64.2552   17.0358 C   0  0  0  0  0  0  0  0  0  0  0  0
   -8.7145  -62.0570   16.8500 N   0  0  0  0  0  0  0  0  0  0  0  0
   -6.2011  -64.6050   18.7890 N   0  0  0  0  0  0  0  0  0  0  0  0
   -7.6644  -65.5811   16.7144 O   0  0  0  0  0  0  0  0  0  0  0  0
   -7.2359  -61.6165   15.2115 O   0  0  0  0  0  0  0  0  0  0  0  0
   -5.7785  -62.7911   17.4985 N   0  0  0  0  0  0  0  0  0  0  0  0
   -6.7648  -63.6611   17.9152 C   0  0  0  0  0  0  0  0  0  0  0  0
   -7.9006  -61.2436   16.1450 C   0  0  0  0  0  0  0  0  0  0  0  0
   -8.0514  -59.7983   16.4118 C   0  0  0  0  0  0  0  0  0  0  0  0
   -8.8545  -63.4279   16.4095 C   0  0  0  0  0  0  0  0  0  0  0  0
  1  4  1  0
  1  7  1  0
  1 10  1  0
  2  8  1  0
  2 10  1  0
  3  7  2  0
  5  8  2  0
  6  7  1  0
  8  9  1  0
M  END
$$$$
