
     RDKit          3D

  9  9  0  0  0  0  0  0  0  0999 V2000
   -9.1169  -64.9592   16.3851 O   0  0  0  0  0  0  0  0  0  0  0  0
   -6.9333  -65.4496   16.8939 N   0  0  0  0  0  0  0  0  0  0  0  0
   -7.5610  -63.1750   16.5986 C   0  0  0  0  0  0  0  0  0  0  0  0
   -7.9501  -64.5585   16.6440 C   0  0  0  0  0  0  0  0  0  0  0  0
   -6.1430  -61.3736   17.4484 C   0  0  0  0  0  0  0  0  0  0  0  0
   -7.7485  -60.9453   15.7172 C   0  0  0  0  0  0  0  0  0  0  0  0
   -6.5119  -62.7174   17.4466 C   0  0  0  0  0  0  0  0  0  0  0  0
   -8.1371  -62.2738   15.6967 C   0  0  0  0  0  0  0  0  0  0  0  0
   -6.7707  -60.4800   16.5698 C   0  0  0  0  0  0  0  0  0  0  0  0
  1  4  2  0
  2  4  1  0
  3  4  1  0
  3  7  2  0
  3  8  1  0
  5  7  1  0
  5  9  2  0
  6  8  2  0
  6  9  1  0
M  END
$$$$
