
     RDKit          3D

 11 12  0  0  0  0  0  0  0  0999 V2000
   -8.4044  -63.5691   17.2552 C   0  0  0  0  0  0  0  0  0  0  0  0
  -10.1630  -63.0076   18.7222 C   0  0  0  0  0  0  0  0  0  0  0  0
   -7.3904  -64.2613   16.6372 C   0  0  0  0  0  0  0  0  0  0  0  0
   -9.1872  -63.8767   18.3505 C   0  0  0  0  0  0  0  0  0  0  0  0
  -10.3881  -61.8448   18.0191 C   0  0  0  0  0  0  0  0  0  0  0  0
   -7.6821  -62.2696   15.5962 N   0  0  0  0  0  0  0  0  0  0  0  0
   -9.5994  -61.5176   16.9252 C   0  0  0  0  0  0  0  0  0  0  0  0
   -8.5714  -62.3853   16.5764 C   0  0  0  0  0  0  0  0  0  0  0  0
   -7.0030  -65.5139   16.8883 O   0  0  0  0  0  0  0  0  0  0  0  0
  -11.3718  -61.0051   18.4242 F   0  0  0  0  0  0  0  0  0  0  0  0
   -6.9113  -63.5433   15.6576 N   0  0  0  0  0  0  0  0  0  0  0  0
  1  3  1  0
  1  4  1  0
  1  8  2  0
  2  4  1  0
  2  5  2  0
  3  9  2  0
  3 11  1  0
  5  7  1  0
  5 10  1  0
  6  8  1  0
  6 11  1  0
  7  8  1  0
M  END
$$$$
