
     RDKit          3D

 38 40  0  0  0  0  0  0  0  0999 V2000
  -19.3254   -7.9916   12.4810 C   0  0  0  0  0  0  0  0  0  0  0  0
  -17.0180  -10.3933   14.0753 O   0  0  0  0  0  0  0  0  0  0  0  0
  -20.5738  -13.5602    5.2079 C   0  0  0  0  0  0  0  0  0  0  0  0
  -21.3860  -11.5086   12.3518 C   0  0  0  0  0  0  0  0  0  0  0  0
  -21.5484  -10.8498   10.0493 C   0  0  0  0  0  0  0  0  0  0  0  0
  -21.4871   -9.1291   12.6956 C   0  0  0  0  0  0  0  0  0  0  0  0
  -20.6546  -12.9353    7.6373 C   0  0  0  0  0  0  0  0  0  0  0  0
  -17.7840  -12.4156   11.5789 O   0  0  0  0  0  0  0  0  0  0  0  0
  -16.6869  -13.4930    7.7152 C   0  0  0  0  0  0  0  0  0  0  0  0
  -16.9398   -7.9675   14.4548 C   0  0  0  0  0  0  0  0  0  0  0  0
  -18.4516  -12.7849    9.2581 C   0  0  0  0  0  0  0  0  0  0  0  0
  -18.2645   -6.9905   12.3748 C   0  0  0  0  0  0  0  0  0  0  0  0
  -19.4230   -8.4970   13.8141 O   0  0  0  0  0  0  0  0  0  0  0  0
  -21.8639  -10.2696   11.5289 C   0  0  0  0  0  0  0  0  0  0  0  0
  -20.7436  -14.0603   11.3101 O   0  0  0  0  0  0  0  0  0  0  0  0
  -17.2840   -8.4171   17.4936 O   0  0  0  0  0  0  0  0  0  0  0  0
  -22.5316  -12.1031   12.9030 O   0  0  0  0  0  0  0  0  0  0  0  0
  -18.3852  -11.9779   10.5482 C   0  0  0  0  0  0  0  0  0  0  0  0
  -22.7805   -8.9609   13.3618 O   0  0  0  0  0  0  0  0  0  0  0  0
  -20.6693   -8.1620   11.8370 C   0  0  0  0  0  0  0  0  0  0  0  0
  -16.4519   -9.2080   13.7366 C   0  0  0  0  0  0  0  0  0  0  0  0
  -20.4806  -10.3124   14.6465 O   0  0  0  0  0  0  0  0  0  0  0  0
  -20.5078   -9.3786   13.8166 C   0  0  0  0  0  0  0  0  0  0  0  0
  -20.6933  -12.5985   11.5391 C   0  0  0  0  0  0  0  0  0  0  0  0
  -17.1429   -5.5796   13.8395 O   0  0  0  0  0  0  0  0  0  0  0  0
  -16.8311   -6.0268   17.1582 O   0  0  0  0  0  0  0  0  0  0  0  0
  -20.0020  -12.9629    8.9975 C   0  0  0  0  0  0  0  0  0  0  0  0
  -17.4542   -6.8933   13.6293 C   0  0  0  0  0  0  0  0  0  0  0  0
  -22.1356  -13.4611    5.4502 C   0  0  0  0  0  0  0  0  0  0  0  0
  -14.9514   -7.4399   17.9168 O   0  0  0  0  0  0  0  0  0  0  0  0
  -23.9352   -9.4206   12.7184 O   0  0  0  0  0  0  0  0  0  0  0  0
  -16.2444   -7.4039   17.0712 P   0  0  0  0  0  0  0  0  0  0  0  0
  -21.8006  -11.9153    7.4406 C   0  0  0  0  0  0  0  0  0  0  0  0
  -20.8515  -12.2339   10.0345 C   0  0  0  0  0  0  0  0  0  0  0  0
  -17.0068  -12.8964    8.9941 O   0  0  0  0  0  0  0  0  0  0  0  0
  -22.3872  -12.0978    6.0791 C   0  0  0  0  0  0  0  0  0  0  0  0
  -15.9892   -7.7487   15.5464 O   0  0  0  0  0  0  0  0  0  0  0  0
  -20.0006  -13.6302    6.5829 O   0  0  0  0  0  0  0  0  0  0  0  0
  1 12  1  0
  1 13  1  0
  1 20  1  0
  2 21  1  0
  3 29  1  0
  3 38  1  0
  4 14  1  0
  4 17  1  0
  4 24  1  0
  5 14  1  0
  5 34  1  0
  6 14  1  0
  6 19  1  0
  6 20  1  0
  6 23  1  0
  7 27  1  0
  7 33  1  0
  7 38  1  0
  8 18  2  0
  9 35  1  0
 10 21  1  0
 10 28  1  0
 10 37  1  0
 11 18  1  0
 11 27  1  0
 11 35  1  0
 12 28  1  0
 13 23  1  0
 15 24  1  0
 16 32  1  0
 19 31  1  0
 22 23  2  0
 24 34  1  0
 25 28  1  0
 26 32  1  0
 27 34  1  0
 29 36  1  0
 30 32  1  0
 32 37  1  0
 33 36  1  0
M  END
$$$$
