
     RDKit          3D

 33 33  0  0  0  0  0  0  0  0999 V2000
  -17.4076  -10.3147   13.2945 O   0  0  0  0  0  0  0  0  0  0  0  0
  -23.3517  -10.2248   12.3505 O   0  0  0  0  0  0  0  0  0  0  0  0
  -20.5798  -13.0370    7.0706 C   0  0  0  0  0  0  0  0  0  0  0  0
  -22.2143   -9.5807   11.9984 C   0  0  0  0  0  0  0  0  0  0  0  0
  -14.5313   -6.8807   16.1555 O   0  0  0  0  0  0  0  0  0  0  0  0
  -21.3797  -13.3180    4.9125 O   0  0  0  0  0  0  0  0  0  0  0  0
  -21.7800  -10.9878   10.0400 O   0  0  0  0  0  0  0  0  0  0  0  0
  -20.8467  -11.4004   11.1288 C   0  0  0  0  0  0  0  0  0  0  0  0
  -16.9128  -13.8585    7.2405 C   0  0  0  0  0  0  0  0  0  0  0  0
  -17.9151   -9.0636   15.2357 O   0  0  0  0  0  0  0  0  0  0  0  0
  -17.3191   -8.9835   13.8887 P   0  0  0  0  0  0  0  0  0  0  0  0
  -21.7307  -11.6176    8.7829 N   0  0  0  0  0  0  0  0  0  0  0  0
  -15.9411   -6.6123   16.6861 P   0  0  0  0  0  0  0  0  0  0  0  0
  -18.2809  -12.3954   11.3000 O   0  0  0  0  0  0  0  0  0  0  0  0
  -19.6809  -12.4658   10.9023 C   0  0  0  0  0  0  0  0  0  0  0  0
  -22.7650  -12.3455    6.3418 O   0  0  0  0  0  0  0  0  0  0  0  0
  -20.1495  -13.6900   11.4466 O   0  0  0  0  0  0  0  0  0  0  0  0
  -15.9766   -8.4154   13.9944 O   0  0  0  0  0  0  0  0  0  0  0  0
  -20.9017  -10.3304   12.2476 C   0  0  0  0  0  0  0  0  0  0  0  0
  -19.8335   -9.2497   12.0097 C   0  0  0  0  0  0  0  0  0  0  0  0
  -18.5615  -13.4683    8.8608 N   0  0  0  0  0  0  0  0  0  0  0  0
  -19.6013  -12.7075    9.3344 C   0  0  0  0  0  0  0  0  0  0  0  0
  -21.6473  -12.8545    6.0465 C   0  0  0  0  0  0  0  0  0  0  0  0
  -19.3579  -13.5231    6.6554 N   0  0  0  0  0  0  0  0  0  0  0  0
  -16.4726   -7.8803   17.2844 O   0  0  0  0  0  0  0  0  0  0  0  0
  -20.7465  -10.5933   13.6110 O   0  0  0  0  0  0  0  0  0  0  0  0
  -18.3788   -7.8216   13.2128 O   0  0  0  0  0  0  0  0  0  0  0  0
  -18.3085  -13.6103    7.5286 C   0  0  0  0  0  0  0  0  0  0  0  0
  -20.4935   -7.9664   12.1974 O   0  0  0  0  0  0  0  0  0  0  0  0
  -20.7013  -12.4792    8.4106 C   0  0  0  0  0  0  0  0  0  0  0  0
  -19.7742   -8.2962   13.2112 C   0  0  0  0  0  0  0  0  0  0  0  0
  -15.9543   -5.5153   17.8052 O   0  0  0  0  0  0  0  0  0  0  0  0
  -16.7240   -6.1041   15.5228 O   0  0  0  0  0  0  0  0  0  0  0  0
  1 11  1  0
  2  4  1  0
  3 23  1  0
  3 24  1  0
  3 30  1  0
  4 19  1  0
  5 13  1  0
  6 23  2  0
  7  8  1  0
  7 12  1  0
  8 15  1  0
  8 19  1  0
  9 28  1  0
 10 11  1  0
 11 18  1  0
 11 27  1  0
 12 30  2  0
 13 25  1  0
 13 32  1  0
 13 33  1  0
 14 15  1  0
 15 17  1  0
 15 22  1  0
 16 23  1  0
 19 20  1  0
 19 26  1  0
 20 31  1  0
 21 22  1  0
 21 28  1  0
 22 30  1  0
 24 28  2  0
 27 31  1  0
 29 31  1  0
M  END
$$$$
