
     RDKit          3D

 32 33  0  0  0  0  0  0  0  0999 V2000
  -21.4402  -11.9350    9.1586 C   0  0  0  0  0  0  0  0  0  0  0  0
  -20.2840  -13.7591    5.3819 C   0  0  0  0  0  0  0  0  0  0  0  0
  -19.3022  -10.6411   11.6952 C   0  0  0  0  0  0  0  0  0  0  0  0
  -18.2318   -5.1737   13.4139 O   0  0  0  0  0  0  0  0  0  0  0  0
  -15.7903   -5.9107   14.4621 O   0  0  0  0  0  0  0  0  0  0  0  0
  -19.5880  -13.5516    6.4662 C   0  0  0  0  0  0  0  0  0  0  0  0
  -20.2150   -7.3236   13.0274 C   0  0  0  0  0  0  0  0  0  0  0  0
  -17.9968   -8.3016   12.0729 O   0  0  0  0  0  0  0  0  0  0  0  0
  -16.6656   -6.9290   14.0592 C   0  0  0  0  0  0  0  0  0  0  0  0
  -20.2193   -9.6283   12.0803 N   0  0  0  0  0  0  0  0  0  0  0  0
  -22.1264  -12.5009    7.0847 C   0  0  0  0  0  0  0  0  0  0  0  0
  -19.6077  -11.5153   10.6772 C   0  0  0  0  0  0  0  0  0  0  0  0
  -15.2954   -9.8073   14.2075 O   0  0  0  0  0  0  0  0  0  0  0  0
  -17.6548  -12.6774   10.6720 O   0  0  0  0  0  0  0  0  0  0  0  0
  -18.7460   -7.4371   12.7655 C   0  0  0  0  0  0  0  0  0  0  0  0
  -21.5676  -13.5166    5.0106 C   0  0  0  0  0  0  0  0  0  0  0  0
  -23.3158   -9.9128   12.7491 O   0  0  0  0  0  0  0  0  0  0  0  0
  -18.7459  -12.3741    9.9926 C   0  0  0  0  0  0  0  0  0  0  0  0
  -17.9484   -6.4700   13.5549 C   0  0  0  0  0  0  0  0  0  0  0  0
  -16.6406   -7.5845   16.4604 C   0  0  0  0  0  0  0  0  0  0  0  0
  -21.0851   -8.4430   12.4553 C   0  0  0  0  0  0  0  0  0  0  0  0
  -21.9002  -11.0377   11.2267 C   0  0  0  0  0  0  0  0  0  0  0  0
  -22.5931  -10.9385   12.3268 C   0  0  0  0  0  0  0  0  0  0  0  0
  -16.4763   -9.6035   15.0142 C   0  0  0  0  0  0  0  0  0  0  0  0
  -21.0228  -11.5328   10.3364 C   0  0  0  0  0  0  0  0  0  0  0  0
  -19.7918  -13.0007    7.7118 C   0  0  0  0  0  0  0  0  0  0  0  0
  -16.9752   -8.6606   17.3536 O   0  0  0  0  0  0  0  0  0  0  0  0
  -22.4373  -12.8970    5.9004 C   0  0  0  0  0  0  0  0  0  0  0  0
  -21.1237  -12.4521    7.9822 C   0  0  0  0  0  0  0  0  0  0  0  0
  -16.7906   -8.1027   15.0345 C   0  0  0  0  0  0  0  0  0  0  0  0
  -22.6576  -11.9952   13.0408 O   0  0  0  0  0  0  0  0  0  0  0  0
  -18.8660  -12.9361    8.7297 C   0  0  0  0  0  0  0  0  0  0  0  0
  1 25  1  0
  1 29  2  0
  2  6  2  0
  2 16  1  0
  3 10  1  0
  3 12  1  0
  4 19  1  0
  5  9  1  0
  6 26  1  0
  7 15  2  3
  7 21  1  0
  8 15  1  0
  9 19  1  0
  9 30  1  0
 10 21  1  0
 11 28  2  0
 11 29  1  0
 12 18  1  0
 12 25  1  0
 13 24  1  0
 14 18  1  0
 15 19  1  0
 16 28  1  0
 17 23  1  0
 18 32  2  0
 20 27  1  0
 20 30  1  0
 22 23  2  0
 22 25  2  0
 23 31  1  0
 24 30  1  0
 26 29  1  0
 26 32  1  0
M  END
$$$$
