
     RDKit          3D

 31 33  0  0  0  0  0  0  0  0999 V2000
  -21.3298  -13.1206    6.3468 C   0  0  0  0  0  0  0  0  0  0  0  0
  -19.4274   -8.2520   12.4325 C   0  0  0  0  0  0  0  0  0  0  0  0
  -22.4938  -13.5974    5.6458 C   0  0  0  0  0  0  0  0  0  0  0  0
  -21.6423  -11.2760   11.5001 C   0  0  0  0  0  0  0  0  0  0  0  0
  -21.0737  -13.1449    7.8441 C   0  0  0  0  0  0  0  0  0  0  0  0
  -19.4497  -12.0785   10.3424 C   0  0  0  0  0  0  0  0  0  0  0  0
  -17.4546  -12.9425    9.0864 C   0  0  0  0  0  0  0  0  0  0  0  0
  -18.0465   -6.2753   12.7551 C   0  0  0  0  0  0  0  0  0  0  0  0
  -16.4969   -5.7935   15.3636 O   0  0  0  0  0  0  0  0  0  0  0  0
  -18.9420  -13.1887    9.4085 C   0  0  0  0  0  0  0  0  0  0  0  0
  -19.5407   -9.5507   11.7388 C   0  0  0  0  0  0  0  0  0  0  0  0
  -20.7848   -7.8974   12.9550 C   0  0  0  0  0  0  0  0  0  0  0  0
  -21.1356  -13.6446   11.1364 O   0  0  0  0  0  0  0  0  0  0  0  0
  -18.1955   -7.7584   12.9074 C   0  0  0  0  0  0  0  0  0  0  0  0
  -20.9289  -12.2935   10.6949 C   0  0  0  0  0  0  0  0  0  0  0  0
  -17.0869   -8.4402   13.6122 C   0  0  0  0  0  0  0  0  0  0  0  0
  -20.0224  -13.4211    5.6585 C   0  0  0  0  0  0  0  0  0  0  0  0
  -17.5814  -12.5034   11.8091 O   0  0  0  0  0  0  0  0  0  0  0  0
  -17.2451   -8.4450   15.1352 C   0  0  0  0  0  0  0  0  0  0  0  0
  -18.9970  -13.6160    6.7679 C   0  0  0  0  0  0  0  0  0  0  0  0
  -21.6245   -9.1286   12.7128 C   0  0  0  0  0  0  0  0  0  0  0  0
  -19.6312  -13.2310    8.0784 C   0  0  0  0  0  0  0  0  0  0  0  0
  -16.2672   -7.1900   15.9116 P   0  0  0  0  0  0  0  0  0  0  0  0
  -16.5908   -7.2103   17.3733 O   0  0  0  0  0  0  0  0  0  0  0  0
  -18.3402  -10.3324   11.6541 O   0  0  0  0  0  0  0  0  0  0  0  0
  -20.7738  -10.2728   12.2053 C   0  0  0  0  0  0  0  0  0  0  0  0
  -22.7426  -11.5499   12.2652 O   0  0  0  0  0  0  0  0  0  0  0  0
  -14.8041   -7.5604   15.6155 O   0  0  0  0  0  0  0  0  0  0  0  0
  -18.4401  -11.6929   11.3585 C   0  0  0  0  0  0  0  0  0  0  0  0
  -22.3768  -12.1589    6.1039 C   0  0  0  0  0  0  0  0  0  0  0  0
  -22.6258   -9.1869   13.5882 O   0  0  0  0  0  0  0  0  0  0  0  0
  1  3  1  0
  1  5  1  0
  1 17  1  0
  1 30  1  0
  2 11  1  0
  2 12  1  0
  2 14  1  0
  4 15  1  0
  4 26  1  0
  4 27  1  0
  5 22  1  0
  6 10  1  0
  6 15  1  0
  6 29  1  0
  7 10  1  0
  8 14  1  0
  9 23  1  0
 10 22  1  0
 11 25  1  0
 11 26  1  0
 12 21  1  0
 13 15  1  0
 14 16  1  0
 16 19  1  0
 17 20  1  0
 18 29  2  0
 19 23  1  0
 20 22  1  0
 21 26  1  0
 21 31  1  0
 23 24  1  0
 23 28  1  0
 25 29  1  0
M  END
$$$$
