
     RDKit          3D

 32 33  0  0  0  0  0  0  0  0999 V2000
  -18.7258  -12.9774    8.7597 C   0  0  0  0  0  0  0  0  0  0  0  0
  -19.6516  -11.7520   11.0744 C   0  0  0  0  0  0  0  0  0  0  0  0
  -21.0439  -12.1918    9.1987 N   0  0  0  0  0  0  0  0  0  0  0  0
  -20.5243  -10.2577   13.9242 O   0  0  0  0  0  0  0  0  0  0  0  0
  -15.1894   -7.3544   15.7313 O   0  0  0  0  0  0  0  0  0  0  0  0
  -20.8888  -11.7467   10.4942 C   0  0  0  0  0  0  0  0  0  0  0  0
  -17.6545   -8.3082   12.9008 O   0  0  0  0  0  0  0  0  0  0  0  0
  -18.9504  -13.6377    6.5781 C   0  0  0  0  0  0  0  0  0  0  0  0
  -22.0323  -11.3235   11.3489 C   0  0  0  0  0  0  0  0  0  0  0  0
  -20.3759   -8.3630   12.6354 C   0  0  0  0  0  0  0  0  0  0  0  0
  -23.5940   -9.8119   12.4791 O   0  0  0  0  0  0  0  0  0  0  0  0
  -18.8198  -10.0259   15.3907 O   0  0  0  0  0  0  0  0  0  0  0  0
  -22.2101  -12.2870   12.4846 O   0  0  0  0  0  0  0  0  0  0  0  0
  -19.0172   -8.6859   13.1505 C   0  0  0  0  0  0  0  0  0  0  0  0
  -21.2681  -13.8527    4.7626 C   0  0  0  0  0  0  0  0  0  0  0  0
  -18.4120  -12.1418   11.0057 C   0  0  0  0  0  0  0  0  0  0  0  0
  -17.9507  -12.8384    9.8832 O   0  0  0  0  0  0  0  0  0  0  0  0
  -16.8272   -6.3667   17.3113 O   0  0  0  0  0  0  0  0  0  0  0  0
  -22.2099   -9.9476   12.0147 C   0  0  0  0  0  0  0  0  0  0  0  0
  -16.4642   -5.4282   15.0414 O   0  0  0  0  0  0  0  0  0  0  0  0
  -19.2687   -9.6855   14.2044 C   0  0  0  0  0  0  0  0  0  0  0  0
  -18.0255  -13.5439    7.6452 C   0  0  0  0  0  0  0  0  0  0  0  0
  -21.3812   -9.3224   13.2403 C   0  0  0  0  0  0  0  0  0  0  0  0
  -14.8055   -5.0602   16.8416 O   0  0  0  0  0  0  0  0  0  0  0  0
  -15.8849   -9.7627   13.8200 O   0  0  0  0  0  0  0  0  0  0  0  0
  -15.8315   -6.0069   16.2773 P   0  0  0  0  0  0  0  0  0  0  0  0
  -22.3765  -12.0309    6.2405 C   0  0  0  0  0  0  0  0  0  0  0  0
  -16.8783   -8.1916   15.2963 O   0  0  0  0  0  0  0  0  0  0  0  0
  -20.0471  -12.7059    8.3862 C   0  0  0  0  0  0  0  0  0  0  0  0
  -20.1846  -13.1098    6.9802 C   0  0  0  0  0  0  0  0  0  0  0  0
  -21.3077  -13.0724    6.0490 C   0  0  0  0  0  0  0  0  0  0  0  0
  -16.7149   -8.7368   14.0120 P   0  0  0  0  0  0  0  0  0  0  0  0
  1 17  1  0
  1 22  1  0
  1 29  2  0
  2  6  1  0
  2 16  2  0
  3  6  2  0
  3 29  1  0
  4 21  1  0
  4 23  1  0
  5 26  1  0
  6  9  1  0
  7 14  1  0
  7 32  1  0
  8 22  1  0
  8 30  1  0
  9 13  1  0
  9 19  1  0
 10 14  1  0
 10 23  1  0
 11 19  1  0
 12 21  2  0
 14 21  1  0
 15 31  1  0
 16 17  1  0
 18 26  1  0
 19 23  1  0
 20 26  1  0
 24 26  1  0
 25 32  1  0
 27 31  1  0
 28 32  1  0
 29 30  1  0
 30 31  1  0
M  END
$$$$
