
     RDKit          3D

 38 39  0  0  0  0  0  0  0  0999 V2000
  -19.2904   -7.9743   12.4950 C   0  0  0  0  0  0  0  0  0  0  0  0
  -17.0303  -10.3720   14.0851 O   0  0  0  0  0  0  0  0  0  0  0  0
  -20.5682  -13.5406    5.2073 C   0  0  0  0  0  0  0  0  0  0  0  0
  -21.4112  -11.4227   12.3126 C   0  0  0  0  0  0  0  0  0  0  0  0
  -21.5326  -10.9150    9.9494 C   0  0  0  0  0  0  0  0  0  0  0  0
  -21.4475   -8.9284   12.8924 C   0  0  0  0  0  0  0  0  0  0  0  0
  -20.6482  -12.9306    7.6340 C   0  0  0  0  0  0  0  0  0  0  0  0
  -17.8041  -12.4523   11.5745 O   0  0  0  0  0  0  0  0  0  0  0  0
  -16.6725  -13.4905    7.7198 C   0  0  0  0  0  0  0  0  0  0  0  0
  -16.9258   -7.9324   14.4300 C   0  0  0  0  0  0  0  0  0  0  0  0
  -18.4552  -12.7834    9.2524 C   0  0  0  0  0  0  0  0  0  0  0  0
  -18.2506   -6.9647   12.3559 C   0  0  0  0  0  0  0  0  0  0  0  0
  -19.3469   -8.4671   13.8344 O   0  0  0  0  0  0  0  0  0  0  0  0
  -21.9901  -10.3750   11.3189 C   0  0  0  0  0  0  0  0  0  0  0  0
  -20.7473  -14.0538   11.3242 O   0  0  0  0  0  0  0  0  0  0  0  0
  -17.3295   -8.5162   17.4643 O   0  0  0  0  0  0  0  0  0  0  0  0
  -22.5469  -12.0533   12.9136 O   0  0  0  0  0  0  0  0  0  0  0  0
  -18.3909  -11.9761   10.5415 C   0  0  0  0  0  0  0  0  0  0  0  0
  -22.7489   -9.0930   13.3745 O   0  0  0  0  0  0  0  0  0  0  0  0
  -20.6068   -8.2610   11.8494 C   0  0  0  0  0  0  0  0  0  0  0  0
  -16.4931   -9.1862   13.7208 C   0  0  0  0  0  0  0  0  0  0  0  0
  -20.4173  -10.2295   14.7250 O   0  0  0  0  0  0  0  0  0  0  0  0
  -20.4525   -9.3053   13.9204 C   0  0  0  0  0  0  0  0  0  0  0  0
  -20.7102  -12.5708   11.5460 C   0  0  0  0  0  0  0  0  0  0  0  0
  -17.2533   -5.5506   13.8540 O   0  0  0  0  0  0  0  0  0  0  0  0
  -16.8955   -6.0860   17.1526 O   0  0  0  0  0  0  0  0  0  0  0  0
  -20.0015  -12.9570    8.9933 C   0  0  0  0  0  0  0  0  0  0  0  0
  -17.4228   -6.8576   13.6042 C   0  0  0  0  0  0  0  0  0  0  0  0
  -22.1293  -13.4633    5.4396 C   0  0  0  0  0  0  0  0  0  0  0  0
  -14.9687   -7.4961   17.9389 O   0  0  0  0  0  0  0  0  0  0  0  0
  -23.9230   -9.4239   12.7229 O   0  0  0  0  0  0  0  0  0  0  0  0
  -16.2907   -7.4558   17.0708 P   0  0  0  0  0  0  0  0  0  0  0  0
  -21.7932  -11.9228    7.4178 C   0  0  0  0  0  0  0  0  0  0  0  0
  -20.8483  -12.2589   10.0362 C   0  0  0  0  0  0  0  0  0  0  0  0
  -17.0056  -12.8957    8.9991 O   0  0  0  0  0  0  0  0  0  0  0  0
  -22.3801  -12.0962    6.0639 C   0  0  0  0  0  0  0  0  0  0  0  0
  -16.0023   -7.7669   15.5326 O   0  0  0  0  0  0  0  0  0  0  0  0
  -19.9943  -13.6368    6.5829 O   0  0  0  0  0  0  0  0  0  0  0  0
  1 12  1  0
  1 13  1  0
  1 20  1  0
  2 21  1  0
  3 29  1  0
  3 38  1  0
  4 14  1  0
  4 17  1  0
  4 24  1  0
  5 14  1  0
  5 34  1  0
  6 19  1  0
  6 20  1  0
  6 23  1  0
  7 27  1  0
  7 33  1  0
  7 38  1  0
  8 18  2  0
  9 35  1  0
 10 21  1  0
 10 28  1  0
 10 37  1  0
 11 18  1  0
 11 27  1  0
 11 35  1  0
 12 28  1  0
 13 23  1  0
 15 24  1  0
 16 32  1  0
 19 31  1  0
 22 23  2  0
 24 34  1  0
 25 28  1  0
 26 32  1  0
 27 34  1  0
 29 36  1  0
 30 32  1  0
 32 37  1  0
 33 36  1  0
M  END
$$$$
