
     RDKit          3D

 27 28  0  0  0  0  0  0  0  0999 V2000
  -21.4369  -10.1103   11.8480 C   0  0  0  0  0  0  0  0  0  0  0  0
  -20.2405  -12.9612    7.9132 C   0  0  0  0  0  0  0  0  0  0  0  0
  -17.9467  -13.8551    7.4057 C   0  0  0  0  0  0  0  0  0  0  0  0
  -15.5709   -8.3365   15.3657 O   0  0  0  0  0  0  0  0  0  0  0  0
  -19.6769  -12.6135    9.2259 C   0  0  0  0  0  0  0  0  0  0  0  0
  -17.8789   -8.4567   14.8657 C   0  0  0  0  0  0  0  0  0  0  0  0
  -18.2109  -12.6622    9.7109 C   0  0  0  0  0  0  0  0  0  0  0  0
  -17.2933  -13.0901    8.5492 C   0  0  0  0  0  0  0  0  0  0  0  0
  -22.2637  -10.8205   12.5420 O   0  0  0  0  0  0  0  0  0  0  0  0
  -18.7693   -9.5394   14.7801 C   0  0  0  0  0  0  0  0  0  0  0  0
  -19.0489   -7.5263   12.9646 N   0  0  0  0  0  0  0  0  0  0  0  0
  -21.0596   -8.6959   11.9502 C   0  0  0  0  0  0  0  0  0  0  0  0
  -20.2144  -10.8363   11.2800 C   0  0  0  0  0  0  0  0  0  0  0  0
  -18.8332  -10.5010   15.7349 O   0  0  0  0  0  0  0  0  0  0  0  0
  -21.4743  -12.6328    5.7666 O   0  0  0  0  0  0  0  0  0  0  0  0
  -16.7484   -8.4122   15.8337 C   0  0  0  0  0  0  0  0  0  0  0  0
  -17.0153   -8.4675   17.0827 O   0  0  0  0  0  0  0  0  0  0  0  0
  -21.6125  -11.2806    9.6669 O   0  0  0  0  0  0  0  0  0  0  0  0
  -20.9664  -13.0936   11.1669 O   0  0  0  0  0  0  0  0  0  0  0  0
  -20.6612  -12.0162   10.2938 C   0  0  0  0  0  0  0  0  0  0  0  0
  -19.2891  -13.4768    6.8692 C   0  0  0  0  0  0  0  0  0  0  0  0
  -19.6638   -9.6275   13.7936 C   0  0  0  0  0  0  0  0  0  0  0  0
  -18.1530   -7.4204   13.9437 C   0  0  0  0  0  0  0  0  0  0  0  0
  -22.4775  -13.6608    5.4514 C   0  0  0  0  0  0  0  0  0  0  0  0
  -19.8810   -8.6043   12.8869 C   0  0  0  0  0  0  0  0  0  0  0  0
  -17.5131   -6.2567   14.0190 F   0  0  0  0  0  0  0  0  0  0  0  0
  -21.5261  -12.4618    7.2761 C   0  0  0  0  0  0  0  0  0  0  0  0
  1  9  1  0
  1 12  1  0
  1 13  1  0
  2  5  1  0
  2 21  1  0
  2 27  1  0
  3  8  1  0
  3 21  1  0
  4 16  2  0
  5  7  1  0
  5 20  1  0
  6 10  1  0
  6 16  1  0
  6 23  1  0
  7  8  1  0
 10 14  1  0
 10 22  2  0
 11 23  2  0
 11 25  1  0
 12 25  1  0
 13 20  1  0
 15 24  1  0
 15 27  1  0
 16 17  1  0
 18 20  1  0
 19 20  1  0
 22 25  1  0
 23 26  1  0
M  END
$$$$
