
     RDKit          3D

 28 29  0  0  0  0  0  0  0  0999 V2000
   27.6572   35.6012  103.4267 C   0  0  0  0  0  0  0  0  0  0  0  0
   29.0957   36.0312  103.5676 C   0  0  0  0  0  0  0  0  0  0  0  0
   31.1213   35.4210  104.4713 C   0  0  0  0  0  0  0  0  0  0  0  0
   32.0812   33.6996  101.9503 O   0  0  0  0  0  0  0  0  0  0  0  0
   29.3288   37.1877  103.7122 O   0  0  0  0  0  0  0  0  0  0  0  0
   24.9818   34.2728  105.7205 N   0  0  0  0  0  0  0  0  0  0  0  0
   23.5903   31.9088  105.6140 C   0  0  0  0  0  0  0  0  0  0  0  0
   26.9970   35.9305  102.2468 C   0  0  0  0  0  0  0  0  0  0  0  0
   26.9371   34.9686  104.4262 C   0  0  0  0  0  0  0  0  0  0  0  0
   23.6064   35.0383  105.6669 C   0  0  0  0  0  0  0  0  0  0  0  0
   31.5992   33.1855  103.1982 C   0  0  0  0  0  0  0  0  0  0  0  0
   31.6834   34.3660  105.2578 C   0  0  0  0  0  0  0  0  0  0  0  0
   23.9006   35.7689  100.4316 F   0  0  0  0  0  0  0  0  0  0  0  0
   30.2069   35.1169  103.4786 C   0  0  0  0  0  0  0  0  0  0  0  0
   22.3197   32.9278  105.8572 C   0  0  0  0  0  0  0  0  0  0  0  0
   25.1045   36.2589  100.7464 C   0  0  0  0  0  0  0  0  0  0  0  0
   25.1337   34.5042  108.3886 O   0  0  0  0  0  0  0  0  0  0  0  0
   24.9896   35.0223  102.9887 C   0  0  0  0  0  0  0  0  0  0  0  0
   30.2034   33.6453  103.3909 C   0  0  0  0  0  0  0  0  0  0  0  0
   25.5955   34.7036  104.2903 C   0  0  0  0  0  0  0  0  0  0  0  0
   26.0334   35.8578   99.7579 F   0  0  0  0  0  0  0  0  0  0  0  0
   25.5866   34.1413  107.1741 C   0  0  0  0  0  0  0  0  0  0  0  0
   25.0936   37.6115  100.7846 F   0  0  0  0  0  0  0  0  0  0  0  0
   26.6034   33.3917  107.5809 O   0  0  0  0  0  0  0  0  0  0  0  0
   29.0339   33.1034  103.2244 O   0  0  0  0  0  0  0  0  0  0  0  0
   32.3875   33.6261  104.2808 C   0  0  0  0  0  0  0  0  0  0  0  0
   25.6726   35.6694  102.0080 C   0  0  0  0  0  0  0  0  0  0  0  0
   22.6471   34.2719  106.7370 C   0  0  0  0  0  0  0  0  0  0  0  0
  1  2  1  0
  1  8  1  0
  1  9  2  0
  2  5  2  0
  2 14  1  0
  3 12  1  0
  3 14  1  0
  4 11  1  0
  6 10  1  0
  6 20  1  0
  6 22  1  0
  7 15  1  0
  8 27  2  0
  9 20  1  0
 10 28  1  0
 11 19  1  0
 11 26  1  0
 12 26  1  0
 13 16  1  0
 14 19  1  0
 15 28  1  0
 16 21  1  0
 16 23  1  0
 16 27  1  0
 17 22  2  0
 18 20  2  0
 18 27  1  0
 19 25  1  0
 22 24  1  0
M  END
$$$$
