
     RDKit          3D

 65 66  0  0  0  0  0  0  0  0999 V2000
   22.0691   31.7453  105.8911 C   0  0  0  0  0  0  0  0  0  0  0  0
   26.6132   35.0310   98.2573 C   0  0  0  0  0  0  0  0  0  0  0  0
   26.2770   35.0287  105.7510 C   0  0  0  0  0  0  0  0  0  0  0  0
   25.2718   36.4529  100.9420 C   0  0  0  0  0  0  0  0  0  0  0  0
   23.9572   35.5175   97.9465 C   0  0  0  0  0  0  0  0  0  0  0  0
   22.4193   30.3052  105.6704 C   0  0  0  0  0  0  0  0  0  0  0  0
   21.5424   29.3473  106.3392 C   0  0  0  0  0  0  0  0  0  0  0  0
   23.3771   34.2523  109.2953 C   0  0  0  0  0  0  0  0  0  0  0  0
   30.3677   32.8072  101.6295 F   0  0  0  0  0  0  0  0  0  0  0  0
   28.7839   34.3390   97.0208 C   0  0  0  0  0  0  0  0  0  0  0  0
   33.6536   33.5527  104.4090 F   0  0  0  0  0  0  0  0  0  0  0  0
   23.1207   30.1019  104.3775 C   0  0  0  0  0  0  0  0  0  0  0  0
   21.5801   34.0480  107.4067 C   0  0  0  0  0  0  0  0  0  0  0  0
   31.5560   33.8339  103.2788 C   0  0  0  0  0  0  0  0  0  0  0  0
   21.9557   34.3524  108.8419 C   0  0  0  0  0  0  0  0  0  0  0  0
   24.9378   35.5297  102.0911 C   0  0  0  0  0  0  0  0  0  0  0  0
   26.5070   34.7088   97.3659 O   0  0  0  0  0  0  0  0  0  0  0  0
   19.2026   29.9215  106.3232 O   0  0  0  0  0  0  0  0  0  0  0  0
   30.3333   32.1980   98.5890 O   0  0  0  0  0  0  0  0  0  0  0  0
   32.2911   33.4978  104.4349 C   0  0  0  0  0  0  0  0  0  0  0  0
   24.0472   32.5663  103.8677 C   0  0  0  0  0  0  0  0  0  0  0  0
   28.4273   34.8201   98.3877 C   0  0  0  0  0  0  0  0  0  0  0  0
   20.3201   31.2644  107.8923 O   0  0  0  0  0  0  0  0  0  0  0  0
   23.5676   31.3138  103.6844 C   0  0  0  0  0  0  0  0  0  0  0  0
   25.7995   35.3000  103.2668 C   0  0  0  0  0  0  0  0  0  0  0  0
   29.5181   32.6523  103.3484 F   0  0  0  0  0  0  0  0  0  0  0  0
   22.3016   32.6645  106.9949 C   0  0  0  0  0  0  0  0  0  0  0  0
   23.6128   27.9294  105.1958 C   0  0  0  0  0  0  0  0  0  0  0  0
   23.3871   34.2206  110.6799 O   0  0  0  0  0  0  0  0  0  0  0  0
   30.7070   34.9150  103.6316 C   0  0  0  0  0  0  0  0  0  0  0  0
   27.2331   35.7575  103.0885 C   0  0  0  0  0  0  0  0  0  0  0  0
   24.3185   29.1820  104.6854 C   0  0  0  0  0  0  0  0  0  0  0  0
   30.6781   32.7561  102.8882 C   0  0  0  0  0  0  0  0  0  0  0  0
   22.1666   35.1598  106.3896 C   0  0  0  0  0  0  0  0  0  0  0  0
   22.2323   27.8019  104.4173 C   0  0  0  0  0  0  0  0  0  0  0  0
   31.4389   31.7475  103.0205 F   0  0  0  0  0  0  0  0  0  0  0  0
   29.9205   27.8907   94.5195 O   0  0  0  0  0  0  0  0  0  0  0  0
   27.5916   34.3509  105.5403 C   0  0  0  0  0  0  0  0  0  0  0  0
   20.3133   30.1061  106.9570 C   0  0  0  0  0  0  0  0  0  0  0  0
   28.6864   34.8154  104.7931 C   0  0  0  0  0  0  0  0  0  0  0  0
   20.2263   32.4144  108.9850 C   0  0  0  0  0  0  0  0  0  0  0  0
   20.0449   34.2927  107.0979 C   0  0  0  0  0  0  0  0  0  0  0  0
   32.4712   33.8025  102.1796 C   0  0  0  0  0  0  0  0  0  0  0  0
   32.1589   32.9867  105.2410 F   0  0  0  0  0  0  0  0  0  0  0  0
   30.0970   34.6128  104.9639 C   0  0  0  0  0  0  0  0  0  0  0  0
   21.0653   32.2813  104.8712 C   0  0  0  0  0  0  0  0  0  0  0  0
   21.9153   33.9766  111.1369 C   0  0  0  0  0  0  0  0  0  0  0  0
   24.4790   34.2780  108.4603 N   0  0  0  0  0  0  0  0  0  0  0  0
   22.3678   35.3557   99.5619 O   0  0  0  0  0  0  0  0  0  0  0  0
   31.0177   34.4397   96.8281 O   0  0  0  0  0  0  0  0  0  0  0  0
   29.6008   28.8284   95.0318 C   0  0  0  0  0  0  0  0  0  0  0  0
   25.4812   33.5322  108.1111 O   0  0  0  0  0  0  0  0  0  0  0  0
   24.1389   36.4327  100.0743 N   0  0  0  0  0  0  0  0  0  0  0  0
   25.3969   37.8539  101.2151 O   0  0  0  0  0  0  0  0  0  0  0  0
   21.2222   33.4488  109.8353 C   0  0  0  0  0  0  0  0  0  0  0  0
   26.1663   35.6875   99.6257 C   0  0  0  0  0  0  0  0  0  0  0  0
   23.5709   35.9906   99.4429 C   0  0  0  0  0  0  0  0  0  0  0  0
   29.2055   33.3842   97.4148 C   0  0  0  0  0  0  0  0  0  0  0  0
   30.3769   33.9520   98.3437 C   0  0  0  0  0  0  0  0  0  0  0  0
   21.1488   28.1982  105.4188 C   0  0  0  0  0  0  0  0  0  0  0  0
   29.8566   28.7485   95.8061 O   0  0  0  0  0  0  0  0  0  0  0  0
   30.8865   34.8078  105.9496 F   0  0  0  0  0  0  0  0  0  0  0  0
   28.1749   35.8060  103.9594 C   0  0  0  0  0  0  0  0  0  0  0  0
   25.3082   35.3181  104.7130 C   0  0  0  0  0  0  0  0  0  0  0  0
   30.5803   36.1553  103.3099 O   0  0  0  0  0  0  0  0  0  0  0  0
  1  6  1  0
  1 27  1  0
  1 46  1  0
  2 17  2  0
  2 22  1  0
  2 56  1  0
  3 38  1  0
  3 64  1  0
  4 16  1  0
  4 53  1  0
  4 54  1  0
  4 56  1  0
  5 57  1  0
  6  7  1  0
  6 12  1  0
  7 39  1  0
  7 60  1  0
  8 15  1  0
  8 29  1  0
  8 48  1  0
  9 33  1  0
 10 22  1  0
 10 58  1  0
 11 20  1  0
 12 24  1  0
 12 32  1  0
 13 15  1  0
 13 27  1  0
 13 34  1  0
 13 42  1  0
 14 20  1  0
 14 30  1  0
 14 33  1  0
 14 43  1  0
 15 55  1  0
 16 25  1  0
 18 39  2  0
 19 59  1  0
 20 44  1  0
 21 24  2  0
 23 39  1  0
 23 41  1  0
 25 31  1  0
 25 64  1  0
 26 33  1  0
 28 32  1  0
 28 35  1  0
 29 47  1  0
 30 45  1  0
 30 65  1  0
 31 63  1  0
 33 36  1  0
 35 60  1  0
 37 51  1  0
 38 40  1  0
 40 45  1  0
 40 63  1  0
 41 55  1  0
 45 62  1  0
 47 55  1  0
 48 52  1  0
 49 57  2  0
 50 59  1  0
 51 61  1  0
 53 57  1  0
 58 59  1  0
M  END
$$$$
