
     RDKit          3D

 25 26  0  0  0  0  0  0  0  0999 V2000
   26.5450   34.3419  107.9391 O   0  0  0  0  0  0  0  0  0  0  0  0
   30.7143   36.9108  103.6439 O   0  0  0  0  0  0  0  0  0  0  0  0
   24.3857   33.3700  106.4270 C   0  0  0  0  0  0  0  0  0  0  0  0
   32.4574   34.0879  105.1199 O   0  0  0  0  0  0  0  0  0  0  0  0
   25.1938   34.0172  104.2411 C   0  0  0  0  0  0  0  0  0  0  0  0
   30.2418   34.8124  104.6885 C   0  0  0  0  0  0  0  0  0  0  0  0
   29.9669   35.9997  103.7465 C   0  0  0  0  0  0  0  0  0  0  0  0
   31.3093   33.3417  102.9834 C   0  0  0  0  0  0  0  0  0  0  0  0
   31.4099   33.9331  104.3103 C   0  0  0  0  0  0  0  0  0  0  0  0
   25.9725   34.9753  103.3308 C   0  0  0  0  0  0  0  0  0  0  0  0
   23.3893   32.4619  104.3919 C   0  0  0  0  0  0  0  0  0  0  0  0
   25.8134   37.3258  101.1098 O   0  0  0  0  0  0  0  0  0  0  0  0
   27.6908   34.5484  105.2922 C   0  0  0  0  0  0  0  0  0  0  0  0
   24.2851   33.1826  103.6512 C   0  0  0  0  0  0  0  0  0  0  0  0
   23.9818   36.3652  100.0382 N   0  0  0  0  0  0  0  0  0  0  0  0
   25.0969   36.3179  101.0264 C   0  0  0  0  0  0  0  0  0  0  0  0
   28.9172   34.1886  104.6855 C   0  0  0  0  0  0  0  0  0  0  0  0
   27.3063   35.6924  103.0816 C   0  0  0  0  0  0  0  0  0  0  0  0
   25.2785   34.0372  105.6641 C   0  0  0  0  0  0  0  0  0  0  0  0
   26.5297   34.5622  106.2663 C   0  0  0  0  0  0  0  0  0  0  0  0
   28.5994   36.2554  103.3752 C   0  0  0  0  0  0  0  0  0  0  0  0
   32.1756   33.7278  102.0471 O   0  0  0  0  0  0  0  0  0  0  0  0
   30.1823   32.5724  102.7223 O   0  0  0  0  0  0  0  0  0  0  0  0
   23.3945   32.5866  105.8089 C   0  0  0  0  0  0  0  0  0  0  0  0
   25.1463   35.2653  102.1069 C   0  0  0  0  0  0  0  0  0  0  0  0
  1 20  1  0
  2  7  2  0
  3 19  2  0
  3 24  1  0
  4  9  1  0
  5 10  1  0
  5 14  1  0
  5 19  1  0
  6  7  1  0
  6  9  1  0
  6 17  1  0
  7 21  1  0
  8  9  1  0
  8 22  2  0
  8 23  1  0
 10 18  2  0
 10 25  1  0
 11 14  2  0
 11 24  1  0
 12 16  2  0
 13 17  2  0
 13 20  2  0
 15 16  1  0
 16 25  1  0
 18 21  2  0
 19 20  1  0
M  END
$$$$
