
     RDKit          3D

 35 39  0  0  0  0  0  0  0  0999 V2000
   25.4567   35.4701  102.0880 C   0  0  0  0  0  0  0  0  0  0  0  0
   26.7519   35.8212  102.5247 C   0  0  0  0  0  0  0  0  0  0  0  0
   24.0663   33.7273  105.1062 C   0  0  0  0  0  0  0  0  0  0  0  0
   23.0531   32.9110  104.8336 C   0  0  0  0  0  0  0  0  0  0  0  0
   24.7279   34.7258  102.9082 C   0  0  0  0  0  0  0  0  0  0  0  0
   28.3079   35.4059  104.4340 C   0  0  0  0  0  0  0  0  0  0  0  0
   27.6694   34.4131   97.5707 C   0  0  0  0  0  0  0  0  0  0  0  0
   29.7166   36.9970  103.5104 O   0  0  0  0  0  0  0  0  0  0  0  0
   24.8796   34.3900  104.1547 C   0  0  0  0  0  0  0  0  0  0  0  0
   24.3403   33.8973  106.4919 C   0  0  0  0  0  0  0  0  0  0  0  0
   23.4024   33.6213  107.4594 C   0  0  0  0  0  0  0  0  0  0  0  0
   26.6814   34.5578  105.8592 C   0  0  0  0  0  0  0  0  0  0  0  0
   24.0206   35.9377  100.1648 N   0  0  0  0  0  0  0  0  0  0  0  0
   25.7035   34.3539  106.8967 C   0  0  0  0  0  0  0  0  0  0  0  0
   22.0837   32.5467  105.7247 C   0  0  0  0  0  0  0  0  0  0  0  0
   31.2072   34.5795  103.1810 N   0  0  0  0  0  0  0  0  0  0  0  0
   31.9782   33.4520  103.5540 C   0  0  0  0  0  0  0  0  0  0  0  0
   30.0926   34.5970   97.0659 O   0  0  0  0  0  0  0  0  0  0  0  0
   32.2501   33.6389  104.9933 C   0  0  0  0  0  0  0  0  0  0  0  0
   28.7379   36.4436   96.6444 O   0  0  0  0  0  0  0  0  0  0  0  0
   28.0829   34.4004  105.3864 N   0  0  0  0  0  0  0  0  0  0  0  0
   29.5112   35.9330  103.9368 C   0  0  0  0  0  0  0  0  0  0  0  0
   26.1244   34.8232  104.5865 C   0  0  0  0  0  0  0  0  0  0  0  0
   25.0718   36.0325  100.8249 C   0  0  0  0  0  0  0  0  0  0  0  0
   28.9410   35.4117   97.4945 C   0  0  0  0  0  0  0  0  0  0  0  0
   26.0781   34.9965   98.7513 N   0  0  0  0  0  0  0  0  0  0  0  0
   30.6283   35.0838  104.2665 C   0  0  0  0  0  0  0  0  0  0  0  0
   27.0992   35.4470  103.7662 C   0  0  0  0  0  0  0  0  0  0  0  0
   31.5725   32.4881  103.0927 O   0  0  0  0  0  0  0  0  0  0  0  0
   31.0149   34.3306  105.3985 C   0  0  0  0  0  0  0  0  0  0  0  0
   25.9416   34.5315  108.0402 O   0  0  0  0  0  0  0  0  0  0  0  0
   22.2316   32.9511  107.0761 C   0  0  0  0  0  0  0  0  0  0  0  0
   26.5155   34.8895   97.7117 N   0  0  0  0  0  0  0  0  0  0  0  0
   26.0130   35.6587   99.7474 C   0  0  0  0  0  0  0  0  0  0  0  0
   23.6652   36.1683   99.3706 C   0  0  0  0  0  0  0  0  0  0  0  0
  1  2  1  0
  1  5  2  0
  1 24  1  0
  2 28  2  0
  3  4  1  0
  3  9  1  0
  3 10  1  0
  4 15  2  0
  5  9  1  0
  6 21  1  0
  6 22  1  0
  6 28  1  0
  7 25  1  0
  7 33  1  0
  8 22  2  0
  9 23  2  0
 10 11  2  0
 10 14  1  0
 11 32  1  0
 12 14  1  0
 12 21  1  0
 12 23  1  0
 13 24  1  0
 13 35  2  0
 14 31  2  0
 15 32  1  0
 16 17  1  0
 16 27  1  0
 17 19  1  0
 17 29  1  0
 18 25  1  0
 19 30  1  0
 20 25  1  0
 22 27  1  0
 23 28  1  0
 24 34  1  0
 26 33  1  0
 26 34  1  0
 27 30  1  0
M  END
$$$$
