
     RDKit          3D

 25 26  0  0  0  0  0  0  0  0999 V2000
   25.9187   35.2729  103.3258 C   0  0  0  0  0  0  0  0  0  0  0  0
   28.8865   34.2374  104.6506 N   0  0  0  0  0  0  0  0  0  0  0  0
   25.8392   37.1905  101.1577 O   0  0  0  0  0  0  0  0  0  0  0  0
   25.9439   34.5307  108.0376 O   0  0  0  0  0  0  0  0  0  0  0  0
   28.8549   36.3314  103.8781 N   0  0  0  0  0  0  0  0  0  0  0  0
   25.0557   35.2386  102.1363 C   0  0  0  0  0  0  0  0  0  0  0  0
   30.2384   34.5068  104.3201 C   0  0  0  0  0  0  0  0  0  0  0  0
   25.3762   35.3500   99.2968 N   0  0  0  0  0  0  0  0  0  0  0  0
   25.7993   34.5629  105.6808 N   0  0  0  0  0  0  0  0  0  0  0  0
   30.0357   32.7573  102.5359 C   0  0  0  0  0  0  0  0  0  0  0  0
   24.8959   36.3246  101.1929 C   0  0  0  0  0  0  0  0  0  0  0  0
   32.3912   33.8355  101.7391 O   0  0  0  0  0  0  0  0  0  0  0  0
   26.6325   35.2561  104.6659 C   0  0  0  0  0  0  0  0  0  0  0  0
   32.1245   33.4949  103.0105 N   0  0  0  0  0  0  0  0  0  0  0  0
   30.8259   33.5003  103.3363 C   0  0  0  0  0  0  0  0  0  0  0  0
   24.5161   34.0258  104.8878 C   0  0  0  0  0  0  0  0  0  0  0  0
   28.1107   35.3161  104.4809 C   0  0  0  0  0  0  0  0  0  0  0  0
   23.7192   36.9412   99.2906 O   0  0  0  0  0  0  0  0  0  0  0  0
   30.1474   35.9083  103.7802 C   0  0  0  0  0  0  0  0  0  0  0  0
   24.2040   36.0030   99.8969 C   0  0  0  0  0  0  0  0  0  0  0  0
   25.4699   34.1334  107.0698 C   0  0  0  0  0  0  0  0  0  0  0  0
   23.2768   35.1133  100.0621 O   0  0  0  0  0  0  0  0  0  0  0  0
   31.1108   34.4027  105.5629 C   0  0  0  0  0  0  0  0  0  0  0  0
   24.6842   34.5531  103.4818 C   0  0  0  0  0  0  0  0  0  0  0  0
   24.2306   33.3491  107.0880 C   0  0  0  0  0  0  0  0  0  0  0  0
  1  6  1  0
  1 13  1  0
  1 24  1  0
  2  7  1  0
  2 17  2  0
  3 11  2  0
  4 21  2  0
  5 17  1  0
  5 19  1  0
  6 11  1  0
  7 15  1  0
  7 19  1  0
  7 23  1  0
  8 20  1  0
  9 13  1  0
  9 16  1  0
  9 21  1  0
 10 15  2  0
 11 20  1  0
 12 14  1  0
 13 17  1  0
 14 15  1  0
 16 24  1  0
 18 20  1  0
 20 22  1  0
 21 25  1  0
M  END
$$$$
