
     RDKit          3D

 25 27  0  0  0  0  0  0  0  0999 V2000
   25.8297   34.4618  105.7556 N   0  0  0  0  0  0  0  0  0  0  0  0
   24.4266   35.5554  100.3378 C   0  0  0  0  0  0  0  0  0  0  0  0
   27.1741   34.5734  105.3653 C   0  0  0  0  0  0  0  0  0  0  0  0
   31.4081   33.6799  103.0279 C   0  0  0  0  0  0  0  0  0  0  0  0
   25.6277   34.3754  108.1554 O   0  0  0  0  0  0  0  0  0  0  0  0
   27.0533   35.7071  103.1179 C   0  0  0  0  0  0  0  0  0  0  0  0
   23.4989   36.3768   98.6764 O   0  0  0  0  0  0  0  0  0  0  0  0
   25.8460   34.7889  103.0946 C   0  0  0  0  0  0  0  0  0  0  0  0
   23.8624   36.6168   99.7882 C   0  0  0  0  0  0  0  0  0  0  0  0
   30.0984   35.6223  103.6215 C   0  0  0  0  0  0  0  0  0  0  0  0
   30.2871   32.8783  102.8771 N   0  0  0  0  0  0  0  0  0  0  0  0
   23.8356   33.3648  106.7158 C   0  0  0  0  0  0  0  0  0  0  0  0
   29.1119   33.4268  103.1986 C   0  0  0  0  0  0  0  0  0  0  0  0
   24.6109   32.8959  104.3214 C   0  0  0  0  0  0  0  0  0  0  0  0
   25.5045   36.0645  101.1714 C   0  0  0  0  0  0  0  0  0  0  0  0
   24.9433   35.7391  102.4569 O   0  0  0  0  0  0  0  0  0  0  0  0
   27.8367   35.2909  104.3108 C   0  0  0  0  0  0  0  0  0  0  0  0
   30.0285   36.9166  103.6598 O   0  0  0  0  0  0  0  0  0  0  0  0
   25.2286   33.9518  106.9707 C   0  0  0  0  0  0  0  0  0  0  0  0
   31.1543   34.8983  103.4366 N   0  0  0  0  0  0  0  0  0  0  0  0
   32.5312   33.3676  102.8392 O   0  0  0  0  0  0  0  0  0  0  0  0
   29.0036   34.6954  103.6948 N   0  0  0  0  0  0  0  0  0  0  0  0
   26.0222   37.1850  101.0803 O   0  0  0  0  0  0  0  0  0  0  0  0
   25.1081   34.3799  104.4234 C   0  0  0  0  0  0  0  0  0  0  0  0
   23.8510   32.4880  105.5245 O   0  0  0  0  0  0  0  0  0  0  0  0
  1  3  1  0
  1 19  1  0
  1 24  1  0
  2  9  1  0
  2 15  1  0
  3 17  1  0
  4 11  1  0
  4 20  1  0
  4 21  2  0
  5 19  2  0
  6  8  1  0
  6 17  1  0
  7  9  1  0
  8 16  1  0
  8 24  1  0
 10 18  2  0
 10 20  1  0
 10 22  1  0
 11 13  2  0
 12 19  1  0
 12 25  1  0
 13 22  1  0
 14 24  1  0
 14 25  1  0
 15 16  1  0
 15 23  1  0
 17 22  1  0
M  END
$$$$
