
     RDKit          3D

 22 24  0  0  0  0  0  0  0  0999 V2000
   25.5935   35.0310  102.8115 C   0  0  0  0  0  0  0  0  0  0  0  0
   27.4189   33.6254  103.4756 C   0  0  0  0  0  0  0  0  0  0  0  0
   27.7306   36.2678  103.1622 N   0  0  0  0  0  0  0  0  0  0  0  0
   26.0469   33.8761  103.7887 C   0  0  0  0  0  0  0  0  0  0  0  0
   30.0100   36.0665  103.7906 N   0  0  0  0  0  0  0  0  0  0  0  0
   24.6455   37.3666  101.0907 O   0  0  0  0  0  0  0  0  0  0  0  0
   23.9680   32.7852  104.3093 O   0  0  0  0  0  0  0  0  0  0  0  0
   30.9280   35.1565  103.8266 C   0  0  0  0  0  0  0  0  0  0  0  0
   28.8393   35.5403  103.4384 C   0  0  0  0  0  0  0  0  0  0  0  0
   31.0434   33.9904  103.2032 N   0  0  0  0  0  0  0  0  0  0  0  0
   25.2920   34.5289  108.3692 O   0  0  0  0  0  0  0  0  0  0  0  0
   26.7277   35.8813  102.4015 C   0  0  0  0  0  0  0  0  0  0  0  0
   24.9938   36.1571  100.7008 C   0  0  0  0  0  0  0  0  0  0  0  0
   24.9619   33.6060  104.8289 C   0  0  0  0  0  0  0  0  0  0  0  0
   25.6088   33.9058  107.2845 C   0  0  0  0  0  0  0  0  0  0  0  0
   26.4299   36.4317  101.0620 C   0  0  0  0  0  0  0  0  0  0  0  0
   24.7160   35.2137  101.8122 O   0  0  0  0  0  0  0  0  0  0  0  0
   24.8957   34.4237  106.0532 C   0  0  0  0  0  0  0  0  0  0  0  0
   32.1059   33.4045  102.7054 O   0  0  0  0  0  0  0  0  0  0  0  0
   29.8242   33.3255  103.0482 C   0  0  0  0  0  0  0  0  0  0  0  0
   28.6921   34.1121  103.3221 C   0  0  0  0  0  0  0  0  0  0  0  0
   23.6665   34.9153  106.3709 O   0  0  0  0  0  0  0  0  0  0  0  0
  1  4  1  0
  1 12  1  0
  1 17  1  0
  2  4  1  0
  2 21  2  0
  3  9  2  0
  3 12  1  0
  4 14  1  0
  5  8  1  0
  5  9  1  0
  6 13  1  0
  7 14  1  0
  8 10  1  0
  9 21  1  0
 10 19  1  0
 10 20  1  0
 11 15  1  0
 12 16  1  0
 13 16  1  0
 13 17  1  0
 14 18  1  0
 15 18  1  0
 18 22  1  0
 20 21  1  0
M  END
$$$$
