
     RDKit          3D

 22 23  0  0  0  0  0  0  0  0999 V2000
   29.4831   37.0692  103.4896 O   0  0  0  0  0  0  0  0  0  0  0  0
   27.3926   36.1813  103.2676 N   0  0  0  0  0  0  0  0  0  0  0  0
   27.3955   33.7673  103.5363 C   0  0  0  0  0  0  0  0  0  0  0  0
   23.8866   33.7253  104.8852 O   0  0  0  0  0  0  0  0  0  0  0  0
   24.6469   37.4501  101.2324 O   0  0  0  0  0  0  0  0  0  0  0  0
   29.8922   33.0095  102.8328 C   0  0  0  0  0  0  0  0  0  0  0  0
   25.0245   35.2611  102.0424 C   0  0  0  0  0  0  0  0  0  0  0  0
   26.6963   35.0294  103.6524 C   0  0  0  0  0  0  0  0  0  0  0  0
   24.0117   36.0066  105.1144 O   0  0  0  0  0  0  0  0  0  0  0  0
   28.8231   33.7395  103.5674 C   0  0  0  0  0  0  0  0  0  0  0  0
   25.0995   36.2818  101.0000 C   0  0  0  0  0  0  0  0  0  0  0  0
   24.0776   35.9050   99.9386 C   0  0  0  0  0  0  0  0  0  0  0  0
   32.0920   33.6750  102.0517 O   0  0  0  0  0  0  0  0  0  0  0  0
   29.2700   34.9161  104.2731 C   0  0  0  0  0  0  0  0  0  0  0  0
   30.5664   34.7935  104.9307 C   0  0  0  0  0  0  0  0  0  0  0  0
   25.2086   35.0096  103.4435 C   0  0  0  0  0  0  0  0  0  0  0  0
   32.7465   33.8967  105.0362 O   0  0  0  0  0  0  0  0  0  0  0  0
   31.6047   33.9548  104.3977 C   0  0  0  0  0  0  0  0  0  0  0  0
   31.2992   33.2860  103.1295 C   0  0  0  0  0  0  0  0  0  0  0  0
   24.3630   34.9051  104.6067 C   0  0  0  0  0  0  0  0  0  0  0  0
   26.4732   36.4890  100.4809 O   0  0  0  0  0  0  0  0  0  0  0  0
   28.7559   36.1377  103.6737 C   0  0  0  0  0  0  0  0  0  0  0  0
  1 22  2  0
  2  8  1  0
  2 22  1  0
  3  8  1  0
  3 10  1  0
  4 20  2  0
  5 11  1  0
  6 10  1  0
  6 19  1  0
  7 11  1  0
  7 16  1  0
  8 16  1  0
  9 20  1  0
 10 14  1  0
 11 12  1  0
 11 21  1  0
 13 19  1  0
 14 15  1  0
 14 22  1  0
 15 18  2  0
 16 20  1  0
 17 18  1  0
 18 19  1  0
M  END
$$$$
