
     RDKit          3D

 27 29  0  0  0  0  0  0  0  0999 V2000
   26.1650   34.8188  104.3870 P   0  0  0  0  0  0  0  0  0  0  0  0
   25.2151   33.7800  105.0027 O   0  0  0  0  0  0  0  0  0  0  0  0
   24.5779   34.1543  106.2220 C   0  0  0  0  0  0  0  0  0  0  0  0
   31.3639   34.3962  104.1592 C   0  0  0  0  0  0  0  0  0  0  0  0
   23.1530   34.6582  106.1050 C   0  0  0  0  0  0  0  0  0  0  0  0
   31.2859   33.3599  102.9158 C   0  0  0  0  0  0  0  0  0  0  0  0
   28.8593   35.0317  104.0861 C   0  0  0  0  0  0  0  0  0  0  0  0
   25.0802   33.7181  107.5452 C   0  0  0  0  0  0  0  0  0  0  0  0
   26.5630   36.6337  101.3527 C   0  0  0  0  0  0  0  0  0  0  0  0
   22.6265   35.1387  107.3567 O   0  0  0  0  0  0  0  0  0  0  0  0
   24.8031   35.1204  102.1369 C   0  0  0  0  0  0  0  0  0  0  0  0
   27.6000   34.2758  104.3741 N   0  0  0  0  0  0  0  0  0  0  0  0
   30.0516   32.7535  102.6661 C   0  0  0  0  0  0  0  0  0  0  0  0
   25.6447   36.7562  100.6483 N   0  0  0  0  0  0  0  0  0  0  0  0
   23.5482   35.8546   99.9957 N   0  0  0  0  0  0  0  0  0  0  0  0
   32.1439   33.7787  101.8808 C   0  0  0  0  0  0  0  0  0  0  0  0
   30.7102   34.2014  105.6761 C   0  0  0  0  0  0  0  0  0  0  0  0
   26.0979   35.9842  105.1884 O   0  0  0  0  0  0  0  0  0  0  0  0
   29.2491   34.2885  105.4635 C   0  0  0  0  0  0  0  0  0  0  0  0
   30.4014   36.8042  103.7112 O   0  0  0  0  0  0  0  0  0  0  0  0
   26.9467   35.9267  102.4084 C   0  0  0  0  0  0  0  0  0  0  0  0
   24.8807   34.3520  108.7062 O   0  0  0  0  0  0  0  0  0  0  0  0
   25.8432   35.2155  102.8848 C   0  0  0  0  0  0  0  0  0  0  0  0
   32.6293   33.8863  104.7477 O   0  0  0  0  0  0  0  0  0  0  0  0
   24.6942   35.9363  100.9121 C   0  0  0  0  0  0  0  0  0  0  0  0
   28.1775   35.9109  103.1035 N   0  0  0  0  0  0  0  0  0  0  0  0
   30.3879   35.5070  103.7418 C   0  0  0  0  0  0  0  0  0  0  0  0
  1  2  1  0
  1 12  1  0
  1 18  1  0
  1 23  1  0
  2  3  1  0
  3  5  1  0
  3  8  1  0
  4  6  1  0
  4 17  1  0
  4 24  1  0
  4 27  1  0
  5 10  1  0
  6 13  1  0
  6 16  1  0
  7 12  1  0
  7 19  1  0
  7 26  1  0
  7 27  1  0
  8 22  1  0
  9 14  1  0
  9 21  2  0
 11 23  2  0
 11 25  1  0
 14 25  1  0
 15 25  2  0
 17 19  1  0
 20 27  1  0
 21 23  1  0
 21 26  1  0
M  END
$$$$
