
     RDKit          3D

 12 13  0  0  0  0  0  0  0  0999 V2000
   47.0378   50.8608   -1.2016 O   0  0  0  0  0  0  0  0  0  0  0  0
   46.8693   52.2676   -1.0407 C   0  0  0  0  0  0  0  0  0  0  0  0
   48.8044   48.9782   -1.5589 C   0  0  0  0  0  0  0  0  0  0  0  0
   49.4576   50.2375   -1.9527 C   0  0  0  0  0  0  0  0  0  0  0  0
   48.8332   52.5476   -1.3234 C   0  0  0  0  0  0  0  0  0  0  0  0
   48.2201   49.1372   -0.1862 C   0  0  0  0  0  0  0  0  0  0  0  0
   47.5524   54.5219   -0.6847 C   0  0  0  0  0  0  0  0  0  0  0  0
   47.9908   50.5878   -0.0635 C   0  0  0  0  0  0  0  0  0  0  0  0
   47.1964   54.7314   -1.9682 O   0  0  0  0  0  0  0  0  0  0  0  0
   49.2802   51.1999   -0.7088 C   0  0  0  0  0  0  0  0  0  0  0  0
   47.8209   53.1394   -0.3215 C   0  0  0  0  0  0  0  0  0  0  0  0
   47.5033   55.5611    0.2440 C   0  0  0  0  0  0  0  0  0  0  0  0
  1  2  1  0
  1  8  1  0
  2 11  1  0
  3  4  1  0
  3  6  1  0
  4 10  1  0
  5 10  1  0
  5 11  1  0
  6  8  1  0
  7  9  1  0
  7 11  1  0
  7 12  1  0
  8 10  1  0
M  END
$$$$
