
     RDKit          3D

  7  7  0  0  0  0  0  0  0  0999 V2000
   47.6003   54.9890   -1.9667 N   0  0  0  0  0  0  0  0  0  0  0  0
   47.7649   52.1521    0.3702 C   0  0  0  0  0  0  0  0  0  0  0  0
   47.1458   53.7085   -1.4264 C   0  0  0  0  0  0  0  0  0  0  0  0
   46.1928   53.7836   -0.2405 C   0  0  0  0  0  0  0  0  0  0  0  0
   46.3010   52.6463    0.6029 N   0  0  0  0  0  0  0  0  0  0  0  0
   48.2949   52.8304   -0.9264 C   0  0  0  0  0  0  0  0  0  0  0  0
   46.1876   54.9702    0.3924 O   0  0  0  0  0  0  0  0  0  0  0  0
  1  3  1  0
  2  5  1  0
  2  6  1  0
  3  4  1  0
  3  6  1  0
  4  5  1  0
  4  7  1  0
M  END
$$$$
