
     RDKit          3D

 12 14  0  0  0  0  0  0  0  0999 V2000
   48.8393   53.2067   -0.1356 C   0  0  0  0  0  0  0  0  0  0  0  0
   46.7998   52.8552   -1.9207 C   0  0  0  0  0  0  0  0  0  0  0  0
   46.8243   50.7903   -0.7883 C   0  0  0  0  0  0  0  0  0  0  0  0
   46.9346   54.6410    0.8208 C   0  0  0  0  0  0  0  0  0  0  0  0
   47.6195   54.0214   -2.3103 C   0  0  0  0  0  0  0  0  0  0  0  0
   48.2307   54.6224   -0.0195 C   0  0  0  0  0  0  0  0  0  0  0  0
   45.9393   53.7912    0.0862 O   0  0  0  0  0  0  0  0  0  0  0  0
   48.3221   50.8235   -1.2436 C   0  0  0  0  0  0  0  0  0  0  0  0
   47.7533   52.4019    0.6864 C   0  0  0  0  0  0  0  0  0  0  0  0
   46.5501   52.4377   -0.4170 C   0  0  0  0  0  0  0  0  0  0  0  0
   47.6107   55.1454   -1.3346 C   0  0  0  0  0  0  0  0  0  0  0  0
   49.1629   52.1566   -1.2823 C   0  0  0  0  0  0  0  0  0  0  0  0
  1  6  1  0
  1  9  1  0
  1 12  1  0
  2  5  1  0
  2 10  1  0
  3  8  1  0
  3 10  1  0
  4  6  1  0
  4  7  1  0
  5 11  1  0
  6 11  1  0
  7 10  1  0
  8 12  1  0
  9 10  1  0
M  END
$$$$
