
     RDKit          3D

 26 29  0  0  0  0  0  0  0  0999 V2000
   47.8364   51.6515   -1.3347 C   0  0  0  0  0  0  0  0  0  0  0  0
   47.3600   56.7724   -3.7666 O   0  0  0  0  0  0  0  0  0  0  0  0
   48.7228   53.4977    0.4831 C   0  0  0  0  0  0  0  0  0  0  0  0
   49.0212   46.7465   -1.3211 C   0  0  0  0  0  0  0  0  0  0  0  0
   49.8058   48.0650    1.0378 C   0  0  0  0  0  0  0  0  0  0  0  0
   48.8199   48.1967   -1.4597 C   0  0  0  0  0  0  0  0  0  0  0  0
   46.8503   54.8231    1.3687 C   0  0  0  0  0  0  0  0  0  0  0  0
   47.7173   46.7479    0.7389 C   0  0  0  0  0  0  0  0  0  0  0  0
   48.2158   55.0127    0.6274 C   0  0  0  0  0  0  0  0  0  0  0  0
   47.4725   54.0929   -1.4847 C   0  0  0  0  0  0  0  0  0  0  0  0
   47.8867   48.9614   -0.4596 C   0  0  0  0  0  0  0  0  0  0  0  0
   46.9524   50.2496    0.4204 C   0  0  0  0  0  0  0  0  0  0  0  0
   46.3981   52.7821    0.3132 C   0  0  0  0  0  0  0  0  0  0  0  0
   48.2056   48.2123    0.8857 C   0  0  0  0  0  0  0  0  0  0  0  0
   45.8303   54.1572    0.5412 C   0  0  0  0  0  0  0  0  0  0  0  0
   49.5221   50.8048    0.2089 C   0  0  0  0  0  0  0  0  0  0  0  0
   48.5933   56.1099   -1.7864 C   0  0  0  0  0  0  0  0  0  0  0  0
   48.9055   46.1126    0.0046 C   0  0  0  0  0  0  0  0  0  0  0  0
   47.9982   54.5029   -2.7192 N   0  0  0  0  0  0  0  0  0  0  0  0
   47.7344   57.0088   -2.5703 C   0  0  0  0  0  0  0  0  0  0  0  0
   47.7924   55.3873   -0.7621 C   0  0  0  0  0  0  0  0  0  0  0  0
   45.7445   50.1882   -0.2780 O   0  0  0  0  0  0  0  0  0  0  0  0
   47.6404   52.9325   -0.4864 C   0  0  0  0  0  0  0  0  0  0  0  0
   48.1431   50.4483   -0.4248 C   0  0  0  0  0  0  0  0  0  0  0  0
   48.7612   52.0253   -2.4448 C   0  0  0  0  0  0  0  0  0  0  0  0
   50.0880   46.6162    0.8744 C   0  0  0  0  0  0  0  0  0  0  0  0
  1 23  1  0
  1 24  1  0
  1 25  1  0
  2 20  2  0
  3  9  1  0
  3 23  1  0
  4  6  1  0
  4 18  1  0
  5 14  1  0
  5 26  1  0
  6 11  1  0
  7  9  1  0
  7 15  1  0
  8 14  1  0
  8 18  1  0
  9 21  1  0
 10 19  1  0
 10 21  1  0
 10 23  1  0
 11 14  1  0
 11 24  1  0
 12 22  1  0
 12 24  1  0
 13 15  1  0
 13 23  1  0
 16 24  1  0
 17 20  1  0
 17 21  1  0
 18 26  1  0
M  END
$$$$
