
     RDKit          3D

  6  6  0  0  0  0  0  0  0  0999 V2000
   46.1399   53.5281   -1.4571 C   0  0  0  0  0  0  0  0  0  0  0  0
   47.1053   54.2553   -2.0777 C   0  0  0  0  0  0  0  0  0  0  0  0
   46.4505   54.7516    0.5112 C   0  0  0  0  0  0  0  0  0  0  0  0
   47.7155   55.2832   -1.4186 C   0  0  0  0  0  0  0  0  0  0  0  0
   45.7878   53.7702   -0.1246 N   0  0  0  0  0  0  0  0  0  0  0  0
   47.3969   55.5267   -0.0988 C   0  0  0  0  0  0  0  0  0  0  0  0
  1  2  1  0
  1  5  2  0
  2  4  2  0
  3  5  1  0
  3  6  2  0
  4  6  1  0
M  END
$$$$
