
     RDKit          3D

 15 15  0  0  0  0  0  0  0  0999 V2000
   21.6193   19.1591   20.1891 C   0  0  0  0  0  0  0  0  0  0  0  0
   21.9217   22.7544   17.8298 C   0  0  0  0  0  0  0  0  0  0  0  0
   20.7439   22.8054   20.1404 C   0  0  0  0  0  0  0  0  0  0  0  0
   22.8429   23.8813   18.3686 C   0  0  0  0  0  0  0  0  0  0  0  0
   22.4287   18.3971   20.8846 N   0  0  0  0  0  0  0  0  0  0  0  0
   21.8890   20.5863   19.8377 C   0  0  0  0  0  0  0  0  0  0  0  0
   21.9647   23.3085   20.7166 C   0  0  0  0  0  0  0  0  0  0  0  0
   22.4047   21.3839   18.5812 C   0  0  0  0  0  0  0  0  0  0  0  0
   20.5890   23.8512   22.5548 O   0  0  0  0  0  0  0  0  0  0  0  0
   23.0900   23.7921   19.8277 C   0  0  0  0  0  0  0  0  0  0  0  0
   19.5982   23.6437   19.6910 C   0  0  0  0  0  0  0  0  0  0  0  0
   20.5679   21.3253   20.2216 C   0  0  0  0  0  0  0  0  0  0  0  0
   22.8329   24.1015   22.8230 C   0  0  0  0  0  0  0  0  0  0  0  0
   23.6218   24.3030   17.3670 O   0  0  0  0  0  0  0  0  0  0  0  0
   21.7649   23.9360   22.0029 C   0  0  0  0  0  0  0  0  0  0  0  0
  1  5  2  0
  1  6  1  0
  2  4  1  0
  2  8  1  0
  3  7  1  0
  3 11  1  0
  3 12  1  0
  4 10  1  0
  4 14  1  0
  6  8  1  0
  6 12  1  0
  7 10  1  0
  7 15  1  0
  9 15  1  0
 13 15  2  0
M  END
$$$$
