
     RDKit          3D

 21 23  0  0  0  0  0  0  0  0999 V2000
   18.1099   24.3748   20.8441 O   0  0  0  0  0  0  0  0  0  0  0  0
   22.6921   21.6085   18.1387 C   0  0  0  0  0  0  0  0  0  0  0  0
   22.8693   20.6214   23.5147 O   0  0  0  0  0  0  0  0  0  0  0  0
   21.0485   22.3236   19.8685 C   0  0  0  0  0  0  0  0  0  0  0  0
   23.5093   24.0303   19.0753 C   0  0  0  0  0  0  0  0  0  0  0  0
   23.5649   19.6870   21.4389 C   0  0  0  0  0  0  0  0  0  0  0  0
   20.1320   24.8609   21.4520 O   0  0  0  0  0  0  0  0  0  0  0  0
   21.9607   23.2107   20.7896 C   0  0  0  0  0  0  0  0  0  0  0  0
   24.8637   23.9716   17.1455 N   0  0  0  0  0  0  0  0  0  0  0  0
   22.7917   18.7776   20.5301 C   0  0  0  0  0  0  0  0  0  0  0  0
   23.3520   22.9518   20.1014 C   0  0  0  0  0  0  0  0  0  0  0  0
   23.1960   21.4927   19.6126 C   0  0  0  0  0  0  0  0  0  0  0  0
   22.2421   22.4286   22.0867 C   0  0  0  0  0  0  0  0  0  0  0  0
   21.8823   19.5200   19.5258 C   0  0  0  0  0  0  0  0  0  0  0  0
   21.7127   20.9413   20.1002 C   0  0  0  0  0  0  0  0  0  0  0  0
   23.4881   23.9332   17.5931 C   0  0  0  0  0  0  0  0  0  0  0  0
   19.3617   24.0510   20.8459 C   0  0  0  0  0  0  0  0  0  0  0  0
   19.6059   22.7751   20.0929 C   0  0  0  0  0  0  0  0  0  0  0  0
   22.0445   17.8093   21.0689 O   0  0  0  0  0  0  0  0  0  0  0  0
   23.1589   21.0832   22.1293 C   0  0  0  0  0  0  0  0  0  0  0  0
   21.3542   22.5105   18.3313 C   0  0  0  0  0  0  0  0  0  0  0  0
  1 17  2  0
  2 12  1  0
  2 21  1  0
  3 20  1  0
  4  8  1  0
  4 15  1  0
  4 18  1  0
  4 21  1  0
  5 11  1  0
  5 16  1  0
  6 10  1  0
  6 20  1  0
  7 17  1  0
  8 11  1  0
  8 13  1  0
  9 16  1  0
 10 14  1  0
 10 19  1  0
 11 12  1  0
 12 15  1  0
 13 20  1  0
 14 15  1  0
 17 18  1  0
M  END
$$$$
