
     RDKit          3D

 17 22  0  0  0  0  0  0  0  0999 V2000
   22.5011   22.9737   18.7646 C   0  0  0  0  0  0  0  0  0  0  0  0
   22.2867   22.8168   17.2185 C   0  0  0  0  0  0  0  0  0  0  0  0
   23.5997   22.2763   20.7581 C   0  0  0  0  0  0  0  0  0  0  0  0
   23.8725   20.7896   18.5477 C   0  0  0  0  0  0  0  0  0  0  0  0
   23.3779   21.2132   21.9065 C   0  0  0  0  0  0  0  0  0  0  0  0
   22.8916   21.6112   19.4203 C   0  0  0  0  0  0  0  0  0  0  0  0
   22.0737   23.1933   22.5447 C   0  0  0  0  0  0  0  0  0  0  0  0
   22.8996   19.9307   21.1332 C   0  0  0  0  0  0  0  0  0  0  0  0
   22.6600   23.4984   21.1849 C   0  0  0  0  0  0  0  0  0  0  0  0
   21.6353   23.5127   19.9485 C   0  0  0  0  0  0  0  0  0  0  0  0
   21.8450   20.6979   20.0892 C   0  0  0  0  0  0  0  0  0  0  0  0
   20.5516   22.6778   20.5248 C   0  0  0  0  0  0  0  0  0  0  0  0
   21.7520   21.6420   22.5599 C   0  0  0  0  0  0  0  0  0  0  0  0
   20.9313   21.3680   21.2672 C   0  0  0  0  0  0  0  0  0  0  0  0
   19.5014   23.2727   21.0333 O   0  0  0  0  0  0  0  0  0  0  0  0
   24.7431   23.1252   19.9506 C   0  0  0  0  0  0  0  0  0  0  0  0
   23.8653   23.8527   18.8592 C   0  0  0  0  0  0  0  0  0  0  0  0
  1  2  1  0
  1  6  1  0
  1 10  1  0
  1 17  1  0
  3  5  1  0
  3  6  1  0
  3  9  1  0
  3 16  1  0
  4  6  1  0
  5  8  1  0
  5 13  1  0
  6 11  1  0
  7  9  1  0
  7 13  1  0
  8 11  1  0
  9 10  1  0
 10 12  1  0
 11 14  1  0
 12 14  1  0
 12 15  1  0
 13 14  1  0
 16 17  1  0
M  END
$$$$
