
     RDKit          3D

 16 16  0  0  0  0  0  0  0  0999 V2000
   23.0673   23.9577   17.0653 O   0  0  0  0  0  0  0  0  0  0  0  0
   23.0332   22.8391   17.8152 C   0  0  0  0  0  0  0  0  0  0  0  0
   19.0012   23.6749   20.7115 O   0  0  0  0  0  0  0  0  0  0  0  0
   24.8956   22.2243   19.2090 N   0  0  0  0  0  0  0  0  0  0  0  0
   21.1023   22.7143   21.1850 C   0  0  0  0  0  0  0  0  0  0  0  0
   24.2993   22.0878   17.9100 C   0  0  0  0  0  0  0  0  0  0  0  0
   19.5687   21.8475   19.5134 O   0  0  0  0  0  0  0  0  0  0  0  0
   23.1125   21.1028   21.3294 S   0  0  0  0  0  0  0  0  0  0  0  0
   21.3231   23.8906   22.1040 C   0  0  0  0  0  0  0  0  0  0  0  0
   23.3561   21.6774   22.6543 O   0  0  0  0  0  0  0  0  0  0  0  0
   19.8668   22.8272   20.3521 C   0  0  0  0  0  0  0  0  0  0  0  0
   22.7428   19.7901   21.2873 O   0  0  0  0  0  0  0  0  0  0  0  0
   25.2297   22.2746   16.7622 C   0  0  0  0  0  0  0  0  0  0  0  0
   22.1126   22.6140   18.9112 C   0  0  0  0  0  0  0  0  0  0  0  0
   22.2028   22.1583   20.3453 N   0  0  0  0  0  0  0  0  0  0  0  0
   24.7081   21.2912   20.3006 C   0  0  0  0  0  0  0  0  0  0  0  0
  1  2  1  0
  2  6  1  0
  2 14  1  0
  3 11  2  0
  4  6  1  0
  4 16  1  0
  5  9  1  0
  5 11  1  0
  5 15  1  0
  6 13  1  0
  7 11  1  0
  8 10  1  0
  8 12  1  0
  8 15  1  0
  8 16  1  0
 14 15  1  0
M  END
$$$$
