
     RDKit          3D

 27 29  0  0  0  0  0  0  0  0999 V2000
   21.4359   25.9272   21.8521 C   0  0  0  0  0  0  0  0  0  0  0  0
   25.4042   24.3015   18.8339 C   0  0  0  0  0  0  0  0  0  0  0  0
   22.0711   18.6229   20.5935 C   0  0  0  0  0  0  0  0  0  0  0  0
   19.1081   24.2417   21.0020 O   0  0  0  0  0  0  0  0  0  0  0  0
   25.0048   21.5834   22.2943 O   0  0  0  0  0  0  0  0  0  0  0  0
   19.9823   23.0642   22.5937 O   0  0  0  0  0  0  0  0  0  0  0  0
   24.2299   23.0621   20.6361 C   0  0  0  0  0  0  0  0  0  0  0  0
   21.7947   24.3737   21.8270 C   0  0  0  0  0  0  0  0  0  0  0  0
   21.8103   22.9697   19.0890 C   0  0  0  0  0  0  0  0  0  0  0  0
   20.7619   22.8066   20.2614 C   0  0  0  0  0  0  0  0  0  0  0  0
   26.5196   24.1433   19.8681 C   0  0  0  0  0  0  0  0  0  0  0  0
   23.1121   23.3675   18.4177 C   0  0  0  0  0  0  0  0  0  0  0  0
   25.6331   20.9843   20.0179 C   0  0  0  0  0  0  0  0  0  0  0  0
   22.5718   19.7156   21.5228 C   0  0  0  0  0  0  0  0  0  0  0  0
   23.1245   24.2035   17.2069 C   0  0  0  0  0  0  0  0  0  0  0  0
   20.3224   23.6547   21.4340 C   0  0  0  0  0  0  0  0  0  0  0  0
   22.9058   23.4101   21.2709 C   0  0  0  0  0  0  0  0  0  0  0  0
   20.8563   18.1251   21.1419 O   0  0  0  0  0  0  0  0  0  0  0  0
   22.1367   22.3746   20.4238 C   0  0  0  0  0  0  0  0  0  0  0  0
   25.8125   25.2346   17.7953 C   0  0  0  0  0  0  0  0  0  0  0  0
   23.3831   25.6631   17.4185 C   0  0  0  0  0  0  0  0  0  0  0  0
   22.5702   23.6753   16.1421 O   0  0  0  0  0  0  0  0  0  0  0  0
   22.3878   20.9576   20.7355 C   0  0  0  0  0  0  0  0  0  0  0  0
   24.8964   21.7633   20.9784 C   0  0  0  0  0  0  0  0  0  0  0  0
   24.2939   23.3891   19.1759 C   0  0  0  0  0  0  0  0  0  0  0  0
   24.8029   26.0732   17.1374 C   0  0  0  0  0  0  0  0  0  0  0  0
   20.7059   22.7540   17.8899 C   0  0  0  0  0  0  0  0  0  0  0  0
  1  8  1  0
  2 11  1  0
  2 20  1  0
  2 25  1  0
  3 14  1  0
  3 18  1  0
  4 16  1  0
  5 24  1  0
  6 16  1  0
  7 17  1  0
  7 24  1  0
  7 25  1  0
  8 16  1  0
  8 17  1  0
  9 12  1  0
  9 19  1  0
  9 27  1  0
 10 16  1  0
 10 19  1  0
 12 15  1  0
 12 25  1  0
 13 24  1  0
 14 23  1  0
 15 21  1  0
 15 22  1  0
 17 19  1  0
 19 23  1  0
 20 26  1  0
 21 26  1  0
M  END
$$$$
