
     RDKit          3D

 65 62  0  0  0  0  0  0  0  0999 V2000
   21.9279   30.3854  105.2457 C   0  0  0  0  0  0  0  0  0  0  0  0
   24.4478   33.8491   96.3119 C   0  0  0  0  0  0  0  0  0  0  0  0
   26.6800   35.1128  105.5556 C   0  0  0  0  0  0  0  0  0  0  0  0
   24.5610   37.3523  101.1196 O   0  0  0  0  0  0  0  0  0  0  0  0
   23.7088   34.3250   97.2402 C   0  0  0  0  0  0  0  0  0  0  0  0
   21.0735   30.0846  106.3934 C   0  0  0  0  0  0  0  0  0  0  0  0
   20.9868   28.6133  106.6561 C   0  0  0  0  0  0  0  0  0  0  0  0
   23.2480   34.0818  109.1958 C   0  0  0  0  0  0  0  0  0  0  0  0
   30.3374   31.3214  100.8944 N   0  0  0  0  0  0  0  0  0  0  0  0
   28.6453   32.7595   96.4969 C   0  0  0  0  0  0  0  0  0  0  0  0
   33.1847   33.4493  104.3322 F   0  0  0  0  0  0  0  0  0  0  0  0
   22.7956   29.2178  104.8684 C   0  0  0  0  0  0  0  0  0  0  0  0
   21.9117   34.2540  107.2404 C   0  0  0  0  0  0  0  0  0  0  0  0
   31.8849   33.0066  101.8160 C   0  0  0  0  0  0  0  0  0  0  0  0
   21.8293   34.3011  108.7228 C   0  0  0  0  0  0  0  0  0  0  0  0
   25.8072   35.3352  100.8013 C   0  0  0  0  0  0  0  0  0  0  0  0
   27.4247   32.8273   96.2478 O   0  0  0  0  0  0  0  0  0  0  0  0
   19.4362   28.7091  104.8829 O   0  0  0  0  0  0  0  0  0  0  0  0
   30.1296   27.8116   94.1899 O   0  0  0  0  0  0  0  0  0  0  0  0
   31.2220   31.8863  102.0629 C   0  0  0  0  0  0  0  0  0  0  0  0
   23.2071   31.9334  103.8916 C   0  0  0  0  0  0  0  0  0  0  0  0
   29.1797   34.0788   96.7972 C   0  0  0  0  0  0  0  0  0  0  0  0
   19.9869   31.7866  107.6571 O   0  0  0  0  0  0  0  0  0  0  0  0
   24.5152   31.1300  104.1523 C   0  0  0  0  0  0  0  0  0  0  0  0
   25.9230   35.1457  102.3078 C   0  0  0  0  0  0  0  0  0  0  0  0
   30.9907   34.1833  103.7925 C   0  0  0  0  0  0  0  0  0  0  0  0
   23.2513   34.2392  106.8291 O   0  0  0  0  0  0  0  0  0  0  0  0
   23.3417   28.1139  105.8550 C   0  0  0  0  0  0  0  0  0  0  0  0
   23.9255   34.4860  110.2998 O   0  0  0  0  0  0  0  0  0  0  0  0
   30.3601   36.4350  103.5769 O   0  0  0  0  0  0  0  0  0  0  0  0
   26.9954   35.6938  103.0428 C   0  0  0  0  0  0  0  0  0  0  0  0
   24.2204   29.6537  104.3717 C   0  0  0  0  0  0  0  0  0  0  0  0
   30.9896   30.9409   99.7455 C   0  0  0  0  0  0  0  0  0  0  0  0
   20.8037   34.7693  106.4263 C   0  0  0  0  0  0  0  0  0  0  0  0
   21.6576   28.2629  104.1355 C   0  0  0  0  0  0  0  0  0  0  0  0
   31.6477   31.2218  103.1166 F   0  0  0  0  0  0  0  0  0  0  0  0
   31.0071   32.6055   97.1452 O   0  0  0  0  0  0  0  0  0  0  0  0
   27.3968   34.4785  106.5059 C   0  0  0  0  0  0  0  0  0  0  0  0
   19.8128   30.8457  106.6343 C   0  0  0  0  0  0  0  0  0  0  0  0
   30.0674   35.3796  103.9307 C   0  0  0  0  0  0  0  0  0  0  0  0
   20.3962   32.9436  110.2465 C   0  0  0  0  0  0  0  0  0  0  0  0
   19.6316   35.0630  107.2073 O   0  0  0  0  0  0  0  0  0  0  0  0
   30.1884   31.3718   98.4990 C   0  0  0  0  0  0  0  0  0  0  0  0
   31.6508   33.0032  105.6180 F   0  0  0  0  0  0  0  0  0  0  0  0
   31.9732   33.9748  104.8014 C   0  0  0  0  0  0  0  0  0  0  0  0
   22.0866   31.7560  104.8480 C   0  0  0  0  0  0  0  0  0  0  0  0
   21.3704   33.8540  111.0783 C   0  0  0  0  0  0  0  0  0  0  0  0
   24.1433   34.2519  107.9330 C   0  0  0  0  0  0  0  0  0  0  0  0
   22.5353   36.5276   99.3223 O   0  0  0  0  0  0  0  0  0  0  0  0
   29.5533   28.8842   94.0014 C   0  0  0  0  0  0  0  0  0  0  0  0
   29.2478   30.0075   95.0732 C   0  0  0  0  0  0  0  0  0  0  0  0
   25.3001   33.5479  108.0701 O   0  0  0  0  0  0  0  0  0  0  0  0
   24.3437   35.2173   98.3559 N   0  0  0  0  0  0  0  0  0  0  0  0
   24.7520   36.2408  100.3993 C   0  0  0  0  0  0  0  0  0  0  0  0
   20.6775   34.3559  109.6764 C   0  0  0  0  0  0  0  0  0  0  0  0
   25.7538   34.8408   98.2613 C   0  0  0  0  0  0  0  0  0  0  0  0
   23.7721   35.9498   99.4051 C   0  0  0  0  0  0  0  0  0  0  0  0
   29.2580   31.3636   96.2887 C   0  0  0  0  0  0  0  0  0  0  0  0
   29.0156   29.2430   92.8933 O   0  0  0  0  0  0  0  0  0  0  0  0
   20.5652   28.0876  105.1465 C   0  0  0  0  0  0  0  0  0  0  0  0
   29.5520   29.8911   96.4325 O   0  0  0  0  0  0  0  0  0  0  0  0
   32.3094   35.0963  105.3509 F   0  0  0  0  0  0  0  0  0  0  0  0
   27.6341   35.4846  104.3223 C   0  0  0  0  0  0  0  0  0  0  0  0
   25.4278   35.6083  105.4185 C   0  0  0  0  0  0  0  0  0  0  0  0
   29.0267   35.1104  104.5990 N   0  0  0  0  0  0  0  0  0  0  0  0
  1  6  1  0
  1 12  1  0
  1 46  1  0
  2  5  2  0
  3 38  1  0
  3 63  1  0
  3 64  2  0
  4 54  1  0
  5 53  1  0
  6  7  1  0
  6 39  1  0
  7 60  1  0
  8 15  1  0
  8 29  1  0
  8 48  1  0
  9 20  1  0
  9 33  1  0
 10 17  2  0
 10 22  1  0
 10 58  1  0
 11 45  1  0
 12 28  1  0
 12 32  1  0
 12 35  1  0
 13 15  1  0
 13 27  1  0
 13 34  1  0
 14 20  2  0
 15 55  1  0
 16 25  1  0
 16 54  1  0
 18 60  1  0
 19 50  2  0
 20 36  1  0
 21 24  1  0
 21 46  1  0
 23 39  1  0
 24 32  1  0
 25 31  2  3
 26 40  1  0
 26 45  1  0
 27 48  1  0
 30 40  2  0
 31 63  1  0
 33 43  1  0
 34 42  1  0
 35 60  1  0
 40 65  1  0
 41 47  1  0
 41 55  1  0
 44 45  1  0
 45 62  1  0
 48 52  1  0
 49 57  2  0
 50 51  1  0
 50 59  1  0
 51 61  1  0
 53 56  1  0
 53 57  1  0
 54 57  1  0
 58 61  1  0
 63 65  1  0
M  END
$$$$
