
     RDKit          3D

 29 30  0  0  0  0  0  0  0  0999 V2000
   32.4515   33.3593  103.4413 O   0  0  0  0  0  0  0  0  0  0  0  0
   22.4482   35.1264   99.3632 N   0  0  0  0  0  0  0  0  0  0  0  0
   25.6850   34.3151  105.1875 C   0  0  0  0  0  0  0  0  0  0  0  0
   28.7626   33.7362  103.5693 C   0  0  0  0  0  0  0  0  0  0  0  0
   22.1926   32.7180  107.5001 O   0  0  0  0  0  0  0  0  0  0  0  0
   31.2445   32.6310  102.8090 C   0  0  0  0  0  0  0  0  0  0  0  0
   29.9576   33.1728  103.2527 N   0  0  0  0  0  0  0  0  0  0  0  0
   23.3531   36.0115   99.7125 C   0  0  0  0  0  0  0  0  0  0  0  0
   23.3682   37.1739   99.1830 O   0  0  0  0  0  0  0  0  0  0  0  0
   32.4048   33.8168  104.7524 C   0  0  0  0  0  0  0  0  0  0  0  0
   29.6523   36.4291  103.8838 C   0  0  0  0  0  0  0  0  0  0  0  0
   26.0604   34.6687  106.4594 C   0  0  0  0  0  0  0  0  0  0  0  0
   25.4129   34.4494  107.5650 C   0  0  0  0  0  0  0  0  0  0  0  0
   23.3358   33.1868  107.0150 C   0  0  0  0  0  0  0  0  0  0  0  0
   26.4619   34.6659  104.0264 C   0  0  0  0  0  0  0  0  0  0  0  0
   30.5470   35.4329  103.7224 C   0  0  0  0  0  0  0  0  0  0  0  0
   23.8583   33.9452  109.2370 O   0  0  0  0  0  0  0  0  0  0  0  0
   24.5336   33.6346  105.0011 C   0  0  0  0  0  0  0  0  0  0  0  0
   30.0535   34.2175  103.5802 C   0  0  0  0  0  0  0  0  0  0  0  0
   27.8668   34.8123  103.9000 C   0  0  0  0  0  0  0  0  0  0  0  0
   23.5699   34.8039  101.7571 C   0  0  0  0  0  0  0  0  0  0  0  0
   30.0139   37.6433  103.9057 O   0  0  0  0  0  0  0  0  0  0  0  0
   25.3251   36.2538  100.8813 C   0  0  0  0  0  0  0  0  0  0  0  0
   25.6313   35.0382  102.9883 N   0  0  0  0  0  0  0  0  0  0  0  0
   24.2426   33.8707  107.9223 C   0  0  0  0  0  0  0  0  0  0  0  0
   28.2770   36.1259  103.9901 C   0  0  0  0  0  0  0  0  0  0  0  0
   24.0927   35.6540  100.8286 C   0  0  0  0  0  0  0  0  0  0  0  0
   23.6809   33.0953  105.6823 C   0  0  0  0  0  0  0  0  0  0  0  0
   24.4054   34.6246  102.8169 C   0  0  0  0  0  0  0  0  0  0  0  0
  1  6  1  0
  1 10  1  0
  2  8  1  0
  3 12  1  0
  3 15  1  0
  3 18  2  0
  4 19  1  0
  4 20  1  0
  5 14  1  0
  6  7  1  0
  7 19  1  0
  8  9  2  0
  8 27  1  0
 11 16  1  0
 11 22  2  0
 11 26  1  0
 12 13  2  0
 13 25  1  0
 14 25  1  0
 14 28  2  0
 15 20  1  0
 15 24  1  0
 16 19  1  0
 17 25  1  0
 18 28  1  0
 20 26  2  0
 21 27  1  0
 21 29  1  0
 23 27  2  0
 24 29  2  3
M  END
$$$$
