
     RDKit          3D

 27 30  0  0  0  0  0  0  0  0999 V2000
   26.7953   36.3151  102.2404 C   0  0  0  0  0  0  0  0  0  0  0  0
   31.4775   34.0832  104.0719 C   0  0  0  0  0  0  0  0  0  0  0  0
   26.5318   34.2893  106.3510 C   0  0  0  0  0  0  0  0  0  0  0  0
   31.0901   35.5196  103.9514 C   0  0  0  0  0  0  0  0  0  0  0  0
   23.7403   34.6852  106.6327 C   0  0  0  0  0  0  0  0  0  0  0  0
   30.3545   33.3391  105.0751 C   0  0  0  0  0  0  0  0  0  0  0  0
   23.9101   33.7599  107.8274 C   0  0  0  0  0  0  0  0  0  0  0  0
   30.2044   32.6260  102.5547 C   0  0  0  0  0  0  0  0  0  0  0  0
   26.5707   37.0320  101.1321 C   0  0  0  0  0  0  0  0  0  0  0  0
   25.3860   36.8086  100.4109 C   0  0  0  0  0  0  0  0  0  0  0  0
   26.1586   34.6587  103.8699 C   0  0  0  0  0  0  0  0  0  0  0  0
   32.3143   33.8805  101.8422 O   0  0  0  0  0  0  0  0  0  0  0  0
   25.2665   34.0420  108.4343 C   0  0  0  0  0  0  0  0  0  0  0  0
   24.4898   35.8374  100.7875 C   0  0  0  0  0  0  0  0  0  0  0  0
   31.4337   33.3940  102.7552 C   0  0  0  0  0  0  0  0  0  0  0  0
   25.8990   35.3305  102.6220 C   0  0  0  0  0  0  0  0  0  0  0  0
   25.1473   34.6451  106.0197 C   0  0  0  0  0  0  0  0  0  0  0  0
   29.4913   34.4693  105.3791 C   0  0  0  0  0  0  0  0  0  0  0  0
   27.3851   34.7994  104.5165 N   0  0  0  0  0  0  0  0  0  0  0  0
   27.9877   34.4400  105.8009 C   0  0  0  0  0  0  0  0  0  0  0  0
   24.7384   35.0654  101.9378 C   0  0  0  0  0  0  0  0  0  0  0  0
   29.7935   35.6305  104.5422 C   0  0  0  0  0  0  0  0  0  0  0  0
   32.6940   33.9589  104.7125 O   0  0  0  0  0  0  0  0  0  0  0  0
   23.4526   35.6920  100.0193 O   0  0  0  0  0  0  0  0  0  0  0  0
   29.0880   36.6797  104.1979 O   0  0  0  0  0  0  0  0  0  0  0  0
   24.8803   34.6901  104.5881 C   0  0  0  0  0  0  0  0  0  0  0  0
   26.6029   34.1235  107.8099 C   0  0  0  0  0  0  0  0  0  0  0  0
  1  9  1  0
  1 16  2  0
  2  4  1  0
  2  6  1  0
  2 15  1  0
  2 23  1  0
  3 17  1  0
  3 20  1  0
  3 27  1  0
  4 22  1  0
  5  7  1  0
  5 17  1  0
  6 18  1  0
  7 13  1  0
  8 15  1  0
  9 10  2  0
 10 14  1  0
 11 16  1  0
 11 19  1  0
 11 26  1  0
 12 15  1  0
 13 27  1  0
 14 21  2  0
 14 24  1  0
 16 21  1  0
 17 26  1  0
 18 20  1  0
 18 22  1  0
 19 20  1  0
 22 25  1  0
M  END
$$$$
