
     RDKit          3D

 28 30  0  0  0  0  0  0  0  0999 V2000
   30.5128   35.7904  103.8804 C   0  0  0  0  0  0  0  0  0  0  0  0
   31.7775   33.6776  104.3153 C   0  0  0  0  0  0  0  0  0  0  0  0
   26.6220   36.4079  101.0120 C   0  0  0  0  0  0  0  0  0  0  0  0
   24.2086   36.0588  100.3345 C   0  0  0  0  0  0  0  0  0  0  0  0
   30.4268   36.9800  103.6232 O   0  0  0  0  0  0  0  0  0  0  0  0
   23.2567   31.2903  103.7943 O   0  0  0  0  0  0  0  0  0  0  0  0
   26.1781   34.6256  104.2009 C   0  0  0  0  0  0  0  0  0  0  0  0
   29.6188   33.6367  103.2534 C   0  0  0  0  0  0  0  0  0  0  0  0
   31.5637   35.1184  104.5362 C   0  0  0  0  0  0  0  0  0  0  0  0
   28.2362   35.8558  103.8540 C   0  0  0  0  0  0  0  0  0  0  0  0
   25.0639   34.2395  103.4286 C   0  0  0  0  0  0  0  0  0  0  0  0
   31.0711   33.3965  103.0199 C   0  0  0  0  0  0  0  0  0  0  0  0
   24.5689   33.6799  107.8593 C   0  0  0  0  0  0  0  0  0  0  0  0
   26.1899   35.7573  102.1991 C   0  0  0  0  0  0  0  0  0  0  0  0
   25.0084   35.0773  102.2639 C   0  0  0  0  0  0  0  0  0  0  0  0
   24.7684   33.7565  106.3874 C   0  0  0  0  0  0  0  0  0  0  0  0
   25.6521   36.2402   99.9356 C   0  0  0  0  0  0  0  0  0  0  0  0
   24.0644   32.1585  104.2845 C   0  0  0  0  0  0  0  0  0  0  0  0
   24.3218   33.1656  103.4525 N   0  0  0  0  0  0  0  0  0  0  0  0
   31.8996   33.7806  101.9332 N   0  0  0  0  0  0  0  0  0  0  0  0
   24.6634   34.4983  108.7593 O   0  0  0  0  0  0  0  0  0  0  0  0
   23.9989   35.2863  101.4668 O   0  0  0  0  0  0  0  0  0  0  0  0
   23.9469   32.5361  105.7879 C   0  0  0  0  0  0  0  0  0  0  0  0
   31.1587   34.1014  105.4006 C   0  0  0  0  0  0  0  0  0  0  0  0
   23.2845   36.5845   99.5613 F   0  0  0  0  0  0  0  0  0  0  0  0
   25.1742   35.1105  106.4687 N   0  0  0  0  0  0  0  0  0  0  0  0
   29.4002   34.9828  103.8040 N   0  0  0  0  0  0  0  0  0  0  0  0
   26.9366   35.5031  103.4596 C   0  0  0  0  0  0  0  0  0  0  0  0
  1  5  2  0
  1  9  1  0
  1 27  1  0
  2 12  1  0
  2 24  1  0
  3 14  1  0
  3 17  1  0
  4 17  1  0
  4 22  1  0
  4 25  1  0
  6 18  2  0
  7 11  1  0
  7 28  1  0
  8 12  1  0
  8 27  1  0
  9 24  1  0
 10 27  1  0
 10 28  1  0
 11 15  1  0
 11 19  1  0
 12 20  1  0
 13 16  1  0
 13 21  2  0
 14 15  1  0
 14 28  2  0
 15 22  1  0
 16 23  1  0
 16 26  1  0
 18 19  1  0
 18 23  1  0
M  END
$$$$
