
     RDKit          3D

 28 28  0  0  0  0  0  0  0  0999 V2000
   27.0146   35.5080  102.6128 N   0  0  0  0  0  0  0  0  0  0  0  0
   24.0847   35.6881  100.3396 C   0  0  0  0  0  0  0  0  0  0  0  0
   29.0189   34.6614  103.7225 N   0  0  0  0  0  0  0  0  0  0  0  0
   21.8825   33.9328  108.6369 C   0  0  0  0  0  0  0  0  0  0  0  0
   19.6869   32.8054  108.1241 N   0  0  0  0  0  0  0  0  0  0  0  0
   26.8218   34.3889  104.6640 N   0  0  0  0  0  0  0  0  0  0  0  0
   25.4675   34.5371  104.6085 C   0  0  0  0  0  0  0  0  0  0  0  0
   32.4972   33.9765  102.1973 O   0  0  0  0  0  0  0  0  0  0  0  0
   29.5876   37.0229  103.6094 O   0  0  0  0  0  0  0  0  0  0  0  0
   23.4209   34.3613  109.1323 S   0  0  0  0  0  0  0  0  0  0  0  0
   29.2954   33.2389  103.4947 C   0  0  0  0  0  0  0  0  0  0  0  0
   25.6610   35.5482  102.4423 C   0  0  0  0  0  0  0  0  0  0  0  0
   21.1427   33.1107  106.1722 C   0  0  0  0  0  0  0  0  0  0  0  0
   23.4124   33.9563  106.2064 N   0  0  0  0  0  0  0  0  0  0  0  0
   30.4884   32.9585  102.7804 C   0  0  0  0  0  0  0  0  0  0  0  0
   27.5863   34.8774  103.6695 C   0  0  0  0  0  0  0  0  0  0  0  0
   24.6651   34.2139  105.8530 C   0  0  0  0  0  0  0  0  0  0  0  0
   25.3974   37.4542  100.9723 O   0  0  0  0  0  0  0  0  0  0  0  0
   31.7231   33.7507  103.3855 C   0  0  0  0  0  0  0  0  0  0  0  0
   25.8354   34.3380  107.2527 S   0  0  0  0  0  0  0  0  0  0  0  0
   21.1254   33.1818  107.6560 C   0  0  0  0  0  0  0  0  0  0  0  0
   24.8619   35.0276  103.4276 C   0  0  0  0  0  0  0  0  0  0  0  0
   25.1492   36.1571  101.1524 C   0  0  0  0  0  0  0  0  0  0  0  0
   31.0550   34.0298  105.7024 O   0  0  0  0  0  0  0  0  0  0  0  0
   31.5574   34.5919  104.5914 C   0  0  0  0  0  0  0  0  0  0  0  0
   32.1153   35.7824  104.7265 O   0  0  0  0  0  0  0  0  0  0  0  0
   22.4938   33.2581  105.4808 C   0  0  0  0  0  0  0  0  0  0  0  0
   29.5952   35.9390  103.7128 C   0  0  0  0  0  0  0  0  0  0  0  0
  1 12  2  0
  1 16  1  0
  2 23  1  0
  3 11  1  0
  3 16  1  0
  3 28  1  0
  4 10  1  0
  4 21  1  0
  5 21  1  0
  6  7  1  0
  6 16  2  0
  7 17  1  0
  7 22  2  0
  8 19  1  0
  9 28  2  0
 11 15  1  0
 12 22  1  0
 12 23  1  0
 13 21  1  0
 13 27  1  0
 14 17  1  0
 14 27  1  0
 15 19  1  0
 17 20  2  0
 18 23  1  0
 19 25  1  0
 24 25  2  0
 25 26  1  0
M  END
$$$$
