
     RDKit          3D

 35 38  0  0  0  0  0  0  0  0999 V2000
   25.2183   36.2859  101.0010 C   0  0  0  0  0  0  0  0  0  0  0  0
   25.6786   35.6828  102.3479 C   0  0  0  0  0  0  0  0  0  0  0  0
   24.1131   33.8369  105.1292 C   0  0  0  0  0  0  0  0  0  0  0  0
   23.0330   33.1310  104.7346 C   0  0  0  0  0  0  0  0  0  0  0  0
   24.8033   34.8407  102.9704 C   0  0  0  0  0  0  0  0  0  0  0  0
   28.4889   35.7787  105.2488 C   0  0  0  0  0  0  0  0  0  0  0  0
   27.7489   34.2821   97.5958 C   0  0  0  0  0  0  0  0  0  0  0  0
   29.6710   37.0185  103.5263 O   0  0  0  0  0  0  0  0  0  0  0  0
   25.0025   34.5123  104.2957 C   0  0  0  0  0  0  0  0  0  0  0  0
   24.4424   34.0405  106.4938 C   0  0  0  0  0  0  0  0  0  0  0  0
   23.5618   33.6638  107.4234 C   0  0  0  0  0  0  0  0  0  0  0  0
   26.1260   34.9597  105.0513 C   0  0  0  0  0  0  0  0  0  0  0  0
   23.6942   35.9846  100.5727 C   0  0  0  0  0  0  0  0  0  0  0  0
   25.7954   34.7592  106.4489 N   0  0  0  0  0  0  0  0  0  0  0  0
   22.1617   32.6813  105.6784 C   0  0  0  0  0  0  0  0  0  0  0  0
   31.4462   34.8055  103.2089 N   0  0  0  0  0  0  0  0  0  0  0  0
   32.1314   33.5490  103.7073 C   0  0  0  0  0  0  0  0  0  0  0  0
   28.9808   35.0035   96.9628 C   0  0  0  0  0  0  0  0  0  0  0  0
   31.9764   33.5679  105.0527 O   0  0  0  0  0  0  0  0  0  0  0  0
   29.0177   36.2590   96.9090 O   0  0  0  0  0  0  0  0  0  0  0  0
   28.9629   34.6119  106.0589 C   0  0  0  0  0  0  0  0  0  0  0  0
   29.4754   35.9570  104.1431 C   0  0  0  0  0  0  0  0  0  0  0  0
   26.8551   35.9771  103.0495 C   0  0  0  0  0  0  0  0  0  0  0  0
   25.3598   37.5842  101.1312 O   0  0  0  0  0  0  0  0  0  0  0  0
   30.0847   34.2393   96.8314 O   0  0  0  0  0  0  0  0  0  0  0  0
   25.5713   35.0999   98.5551 C   0  0  0  0  0  0  0  0  0  0  0  0
   30.3729   34.8937  104.1216 C   0  0  0  0  0  0  0  0  0  0  0  0
   27.1790   35.5538  104.3776 C   0  0  0  0  0  0  0  0  0  0  0  0
   31.6703   32.5529  103.0443 O   0  0  0  0  0  0  0  0  0  0  0  0
   30.3389   34.0366  105.3301 C   0  0  0  0  0  0  0  0  0  0  0  0
   26.4107   35.1591  107.5259 O   0  0  0  0  0  0  0  0  0  0  0  0
   22.3981   32.9744  107.0379 C   0  0  0  0  0  0  0  0  0  0  0  0
   26.5484   35.1413   97.4881 C   0  0  0  0  0  0  0  0  0  0  0  0
   25.9232   35.6011   99.8605 N   0  0  0  0  0  0  0  0  0  0  0  0
   23.4827   36.0840   99.2238 N   0  0  0  0  0  0  0  0  0  0  0  0
  1  2  1  0
  1 13  1  0
  1 24  1  0
  1 34  1  0
  2  5  1  0
  2 23  2  0
  3  4  2  0
  3  9  1  0
  3 10  1  0
  4 15  1  0
  5  9  2  0
  6 21  1  0
  6 22  1  0
  6 28  1  0
  7 18  1  0
  7 33  1  0
  8 22  2  0
  9 12  1  0
 10 11  2  0
 10 14  1  0
 11 32  1  0
 12 14  1  0
 12 28  2  0
 13 35  1  0
 14 31  1  0
 15 32  2  0
 16 17  1  0
 16 27  1  0
 17 19  1  0
 17 29  1  0
 18 20  2  0
 18 25  1  0
 21 30  1  0
 22 27  1  0
 23 28  1  0
 26 33  1  0
 26 34  1  0
 27 30  1  0
M  END
$$$$
