
     RDKit          3D

 25 27  0  0  0  0  0  0  0  0999 V2000
   25.8793   34.4015  105.8045 N   0  0  0  0  0  0  0  0  0  0  0  0
   24.4755   35.4628  100.3131 C   0  0  0  0  0  0  0  0  0  0  0  0
   27.2988   34.5232  105.6710 C   0  0  0  0  0  0  0  0  0  0  0  0
   31.4632   33.7423  102.9665 C   0  0  0  0  0  0  0  0  0  0  0  0
   25.4761   34.5068  108.1070 O   0  0  0  0  0  0  0  0  0  0  0  0
   26.9884   35.6507  103.3415 C   0  0  0  0  0  0  0  0  0  0  0  0
   22.8879   36.7964   99.1658 O   0  0  0  0  0  0  0  0  0  0  0  0
   25.8650   34.7311  103.1435 C   0  0  0  0  0  0  0  0  0  0  0  0
   24.0597   36.9008   99.8862 C   0  0  0  0  0  0  0  0  0  0  0  0
   30.0992   35.5719  103.6568 C   0  0  0  0  0  0  0  0  0  0  0  0
   30.3534   32.9101  102.9090 N   0  0  0  0  0  0  0  0  0  0  0  0
   23.7327   33.4437  106.6640 C   0  0  0  0  0  0  0  0  0  0  0  0
   29.1474   33.3892  103.2706 C   0  0  0  0  0  0  0  0  0  0  0  0
   24.5648   32.9459  104.3756 C   0  0  0  0  0  0  0  0  0  0  0  0
   25.5737   35.8845  101.2301 C   0  0  0  0  0  0  0  0  0  0  0  0
   24.9460   35.5960  102.4638 O   0  0  0  0  0  0  0  0  0  0  0  0
   27.8374   35.1308  104.4534 C   0  0  0  0  0  0  0  0  0  0  0  0
   29.9286   36.8414  103.8347 O   0  0  0  0  0  0  0  0  0  0  0  0
   25.1448   33.9643  106.9536 C   0  0  0  0  0  0  0  0  0  0  0  0
   31.2998   35.0523  103.3434 N   0  0  0  0  0  0  0  0  0  0  0  0
   32.6121   33.3379  102.5978 O   0  0  0  0  0  0  0  0  0  0  0  0
   29.0308   34.6464  103.7835 N   0  0  0  0  0  0  0  0  0  0  0  0
   26.4242   36.7820  100.9877 O   0  0  0  0  0  0  0  0  0  0  0  0
   25.2230   34.3436  104.4940 C   0  0  0  0  0  0  0  0  0  0  0  0
   23.7423   32.5406  105.4808 O   0  0  0  0  0  0  0  0  0  0  0  0
  1  3  1  0
  1 19  1  0
  1 24  1  0
  2  9  1  0
  2 15  1  0
  3 17  1  0
  4 11  1  0
  4 20  1  0
  4 21  2  0
  5 19  2  0
  6  8  1  0
  6 17  1  0
  7  9  1  0
  8 16  1  0
  8 24  1  0
 10 18  2  0
 10 20  1  0
 10 22  1  0
 11 13  2  0
 12 19  1  0
 12 25  1  0
 13 22  1  0
 14 24  1  0
 14 25  1  0
 15 16  1  0
 15 23  2  0
 17 22  1  0
M  END
$$$$
