
     RDKit          3D

 27 29  0  0  0  0  0  0  0  0999 V2000
   29.4789   43.6564   16.3249 C   0  0  0  0  0  0  0  0  0  0  0  0
   30.0494   40.1426   18.5541 C   0  0  0  0  0  0  0  0  0  0  0  0
   38.7704   46.1161   14.2790 C   0  0  0  0  0  0  0  0  0  0  0  0
   38.4115   44.8660   16.8576 O   0  0  0  0  0  0  0  0  0  0  0  0
   28.7836   39.1115   20.3737 C   0  0  0  0  0  0  0  0  0  0  0  0
   31.9045   41.4243   18.4291 C   0  0  0  0  0  0  0  0  0  0  0  0
   36.2776   43.1758   17.3520 C   0  0  0  0  0  0  0  0  0  0  0  0
   39.3432   47.4902   14.7073 C   0  0  0  0  0  0  0  0  0  0  0  0
   31.3223   40.3068   19.0581 C   0  0  0  0  0  0  0  0  0  0  0  0
   34.5004   41.5382   18.5610 C   0  0  0  0  0  0  0  0  0  0  0  0
   30.1698   45.4391   14.9023 N   0  0  0  0  0  0  0  0  0  0  0  0
   31.4661   45.0421   15.1163 C   0  0  0  0  0  0  0  0  0  0  0  0
   30.9049   41.9871   17.4473 C   0  0  0  0  0  0  0  0  0  0  0  0
   33.1382   41.8022   19.0114 N   0  0  0  0  0  0  0  0  0  0  0  0
   29.8212   41.1236   17.5938 N   0  0  0  0  0  0  0  0  0  0  0  0
   31.9748   39.5574   19.9497 O   0  0  0  0  0  0  0  0  0  0  0  0
   35.5909   41.0835   19.6451 C   0  0  0  0  0  0  0  0  0  0  0  0
   30.7378   43.1992   16.5724 C   0  0  0  0  0  0  0  0  0  0  0  0
   29.0807   39.2573   18.9498 O   0  0  0  0  0  0  0  0  0  0  0  0
   37.3472   45.0735   16.1619 C   0  0  0  0  0  0  0  0  0  0  0  0
   37.3934   45.9221   14.9213 C   0  0  0  0  0  0  0  0  0  0  0  0
   34.9313   42.8359   17.9332 C   0  0  0  0  0  0  0  0  0  0  0  0
   34.0302   44.0095   17.7284 C   0  0  0  0  0  0  0  0  0  0  0  0
   29.1512   44.7093   15.4929 C   0  0  0  0  0  0  0  0  0  0  0  0
   36.1163   44.4369   16.5396 C   0  0  0  0  0  0  0  0  0  0  0  0
   34.8018   45.0526   16.9381 C   0  0  0  0  0  0  0  0  0  0  0  0
   31.7517   43.9316   15.9064 C   0  0  0  0  0  0  0  0  0  0  0  0
  1 18  2  0
  1 24  1  0
  2  9  2  0
  2 15  1  0
  2 19  1  0
  3  8  1  0
  3 21  1  0
  4 20  1  0
  5 19  1  0
  6  9  1  0
  6 13  2  0
  6 14  1  0
  7 22  1  0
  7 25  1  0
  9 16  1  0
 10 14  1  0
 10 17  1  0
 10 22  1  0
 11 12  2  0
 11 24  1  0
 12 27  1  0
 13 15  1  0
 13 18  1  0
 18 27  1  0
 20 21  1  0
 20 25  1  0
 22 23  1  0
 23 26  1  0
 25 26  1  0
M  END
$$$$
