
     RDKit          3D

 32 35  0  0  0  0  0  0  0  0999 V2000
   30.3407   41.7278   17.4644 C   0  0  0  0  0  0  0  0  0  0  0  0
   31.6761   45.3541   14.6815 C   0  0  0  0  0  0  0  0  0  0  0  0
   33.2554   43.7865   17.6311 C   0  0  0  0  0  0  0  0  0  0  0  0
   33.8518   45.9865   18.4638 O   0  0  0  0  0  0  0  0  0  0  0  0
   40.6864   47.4679   15.7382 C   0  0  0  0  0  0  0  0  0  0  0  0
   29.5306   40.6510   16.8370 C   0  0  0  0  0  0  0  0  0  0  0  0
   34.1984   44.8371   17.8772 C   0  0  0  0  0  0  0  0  0  0  0  0
   37.5800   45.1510   15.9966 C   0  0  0  0  0  0  0  0  0  0  0  0
   39.3032   47.1890   15.8577 O   0  0  0  0  0  0  0  0  0  0  0  0
   33.3980   42.4630   18.3130 N   0  0  0  0  0  0  0  0  0  0  0  0
   31.0965   44.8763   15.8874 N   0  0  0  0  0  0  0  0  0  0  0  0
   34.4484   42.0105   19.2023 C   0  0  0  0  0  0  0  0  0  0  0  0
   38.1386   43.7719   20.1947 C   0  0  0  0  0  0  0  0  0  0  0  0
   36.3379   42.2625   20.6456 C   0  0  0  0  0  0  0  0  0  0  0  0
   36.2082   45.4125   16.6312 C   0  0  0  0  0  0  0  0  0  0  0  0
   28.3361   40.4218   17.6776 C   0  0  0  0  0  0  0  0  0  0  0  0
   28.7334   40.4894   19.1085 C   0  0  0  0  0  0  0  0  0  0  0  0
   35.6783   42.7011   19.5194 C   0  0  0  0  0  0  0  0  0  0  0  0
   35.5771   44.4876   17.6561 N   0  0  0  0  0  0  0  0  0  0  0  0
   36.2432   43.7809   18.7329 C   0  0  0  0  0  0  0  0  0  0  0  0
   32.0081   43.9558   16.7155 C   0  0  0  0  0  0  0  0  0  0  0  0
   27.8813   41.0790   19.8458 O   0  0  0  0  0  0  0  0  0  0  0  0
   30.1854   40.4048   19.4541 C   0  0  0  0  0  0  0  0  0  0  0  0
   37.5523   42.8148   20.9842 C   0  0  0  0  0  0  0  0  0  0  0  0
   31.2715   42.5860   16.5905 C   0  0  0  0  0  0  0  0  0  0  0  0
   33.1701   40.1361   18.1588 O   0  0  0  0  0  0  0  0  0  0  0  0
   32.5481   41.2708   18.3107 C   0  0  0  0  0  0  0  0  0  0  0  0
   29.7132   44.4232   15.5917 C   0  0  0  0  0  0  0  0  0  0  0  0
   38.6707   46.9856   14.5772 C   0  0  0  0  0  0  0  0  0  0  0  0
   37.5211   44.2378   19.0813 C   0  0  0  0  0  0  0  0  0  0  0  0
   31.1273   41.2382   18.6313 C   0  0  0  0  0  0  0  0  0  0  0  0
   37.8807   45.6659   14.5645 C   0  0  0  0  0  0  0  0  0  0  0  0
  1  6  1  0
  1 25  1  0
  1 31  1  0
  2 11  1  0
  3  7  1  0
  3 10  1  0
  3 21  2  0
  4  7  2  0
  5  9  1  0
  6 16  1  0
  7 19  1  0
  8 15  1  0
  8 32  1  0
  9 29  1  0
 10 12  1  0
 10 27  1  0
 11 21  1  0
 11 28  1  0
 12 18  1  0
 13 24  2  0
 13 30  1  0
 14 18  2  0
 14 24  1  0
 15 19  1  0
 16 17  1  0
 17 22  2  0
 17 23  1  0
 18 20  1  0
 19 20  1  0
 20 30  2  0
 21 25  1  0
 23 31  1  0
 26 27  2  0
 27 31  1  0
 29 32  1  0
M  END
$$$$
