
     RDKit          3D

 32 35  0  0  0  0  0  0  0  0999 V2000
   35.7397   42.1010   19.4119 C   0  0  0  0  0  0  0  0  0  0  0  0
   31.6585   40.6790   18.5863 C   0  0  0  0  0  0  0  0  0  0  0  0
   34.7296   44.5736   16.7491 N   0  0  0  0  0  0  0  0  0  0  0  0
   30.4359   39.3109   20.1824 C   0  0  0  0  0  0  0  0  0  0  0  0
   39.2313   45.2277   17.8312 C   0  0  0  0  0  0  0  0  0  0  0  0
   29.2414   40.6729   18.6092 C   0  0  0  0  0  0  0  0  0  0  0  0
   35.1129   43.5704   17.6065 C   0  0  0  0  0  0  0  0  0  0  0  0
   32.4947   44.6316   15.6020 C   0  0  0  0  0  0  0  0  0  0  0  0
   30.4200   41.1400   18.0643 C   0  0  0  0  0  0  0  0  0  0  0  0
   30.1767   43.9783   15.6148 C   0  0  0  0  0  0  0  0  0  0  0  0
   27.7257   39.3936   20.3669 Cl  0  0  0  0  0  0  0  0  0  0  0  0
   34.4041   42.5665   19.9730 C   0  0  0  0  0  0  0  0  0  0  0  0
   31.6434   39.7212   19.6117 C   0  0  0  0  0  0  0  0  0  0  0  0
   36.1159   43.2288   18.5051 N   0  0  0  0  0  0  0  0  0  0  0  0
   31.2572   44.6455   15.2080 N   0  0  0  0  0  0  0  0  0  0  0  0
   39.8084   45.9593   16.8257 O   0  0  0  0  0  0  0  0  0  0  0  0
   37.3795   43.8280   18.6644 C   0  0  0  0  0  0  0  0  0  0  0  0
   37.9532   44.6424   17.6897 C   0  0  0  0  0  0  0  0  0  0  0  0
   29.8280   43.0012   16.3648 C   0  0  0  0  0  0  0  0  0  0  0  0
   40.9190   47.7366   15.7420 C   0  0  0  0  0  0  0  0  0  0  0  0
   33.0334   41.1573   18.1582 C   0  0  0  0  0  0  0  0  0  0  0  0
   37.3638   44.8941   16.5435 O   0  0  0  0  0  0  0  0  0  0  0  0
   33.3852   42.5232   18.8542 C   0  0  0  0  0  0  0  0  0  0  0  0
   40.9238   46.8659   17.0175 C   0  0  0  0  0  0  0  0  0  0  0  0
   38.0527   43.6191   19.8041 C   0  0  0  0  0  0  0  0  0  0  0  0
   39.9030   45.0158   19.0031 C   0  0  0  0  0  0  0  0  0  0  0  0
   30.9777   45.6502   14.0068 C   0  0  0  0  0  0  0  0  0  0  0  0
   29.2688   39.8282   19.6707 C   0  0  0  0  0  0  0  0  0  0  0  0
   34.0961   42.4582   17.5490 C   0  0  0  0  0  0  0  0  0  0  0  0
   33.6263   44.6606   16.0255 C   0  0  0  0  0  0  0  0  0  0  0  0
   30.2558   42.0260   17.0403 C   0  0  0  0  0  0  0  0  0  0  0  0
   39.3066   44.2296   19.9835 C   0  0  0  0  0  0  0  0  0  0  0  0
  1 12  1  0
  1 14  1  0
  2  9  1  0
  2 13  1  0
  2 21  1  0
  3  7  2  3
  3 30  1  0
  4 13  2  0
  4 28  1  0
  5 16  1  0
  5 18  2  0
  5 26  1  0
  6  9  1  0
  6 28  2  0
  7 14  1  0
  7 29  1  0
  8 15  1  0
  8 30  3  0
  9 31  2  0
 10 15  1  0
 10 19  1  0
 11 28  1  0
 12 23  1  0
 14 17  1  0
 15 27  1  0
 16 24  1  0
 17 18  1  0
 17 25  2  0
 18 22  1  0
 19 31  2  0
 20 24  1  0
 21 23  1  0
 23 29  1  0
 25 32  1  0
 26 32  2  0
M  END
$$$$
