
     RDKit          3D

 23 23  0  0  0  0  0  0  0  0999 V2000
   23.8506   35.9933   99.9066 F   0  0  0  0  0  0  0  0  0  0  0  0
   25.0239   35.3439  101.9146 C   0  0  0  0  0  0  0  0  0  0  0  0
   30.9739   34.5856  103.6065 C   0  0  0  0  0  0  0  0  0  0  0  0
   23.8044   33.9526  107.3569 O   0  0  0  0  0  0  0  0  0  0  0  0
   29.1068   36.1161  103.6129 C   0  0  0  0  0  0  0  0  0  0  0  0
   23.6925   33.5951  105.0060 C   0  0  0  0  0  0  0  0  0  0  0  0
   30.5054   32.5243  102.5433 O   0  0  0  0  0  0  0  0  0  0  0  0
   31.3063   33.5376  102.6585 C   0  0  0  0  0  0  0  0  0  0  0  0
   25.2807   37.5123  100.9826 F   0  0  0  0  0  0  0  0  0  0  0  0
   26.9567   35.0684  103.7080 C   0  0  0  0  0  0  0  0  0  0  0  0
   29.8417   37.1755  103.6343 F   0  0  0  0  0  0  0  0  0  0  0  0
   24.7845   36.3005  100.8524 C   0  0  0  0  0  0  0  0  0  0  0  0
   25.1108   35.2501  106.1851 O   0  0  0  0  0  0  0  0  0  0  0  0
   24.7066   33.6306  103.7530 C   0  0  0  0  0  0  0  0  0  0  0  0
   32.3193   34.2818  105.4353 C   0  0  0  0  0  0  0  0  0  0  0  0
   27.7385   36.1990  103.3627 C   0  0  0  0  0  0  0  0  0  0  0  0
   25.5180   34.9674  103.2589 C   0  0  0  0  0  0  0  0  0  0  0  0
   29.6136   34.8412  103.9598 C   0  0  0  0  0  0  0  0  0  0  0  0
   27.5185   34.0668  104.4249 C   0  0  0  0  0  0  0  0  0  0  0  0
   31.7926   35.1186  104.5380 N   0  0  0  0  0  0  0  0  0  0  0  0
   24.2563   34.3360  106.2505 C   0  0  0  0  0  0  0  0  0  0  0  0
   28.8244   33.9690  104.6119 C   0  0  0  0  0  0  0  0  0  0  0  0
   32.3497   33.7725  101.8850 O   0  0  0  0  0  0  0  0  0  0  0  0
  1 12  1  0
  2 12  2  3
  2 17  1  0
  3  8  1  0
  3 18  1  0
  3 20  1  0
  4 21  2  0
  5 11  1  0
  5 16  2  0
  5 18  1  0
  6 14  1  0
  6 21  1  0
  7  8  2  0
  8 23  1  0
  9 12  1  0
 10 16  1  0
 10 17  1  0
 10 19  1  0
 13 21  1  0
 14 17  1  0
 15 20  1  0
 18 22  1  0
 19 22  2  0
M  END
$$$$
