
     RDKit          3D

 65 63  0  0  0  0  0  0  0  0999 V2000
   21.9308   30.3884  105.2418 C   0  0  0  0  0  0  0  0  0  0  0  0
   23.4289   34.4046   97.3163 C   0  0  0  0  0  0  0  0  0  0  0  0
   26.6804   35.1089  105.5852 C   0  0  0  0  0  0  0  0  0  0  0  0
   24.6091   37.2206  100.9167 O   0  0  0  0  0  0  0  0  0  0  0  0
   25.0758   34.2043   96.9751 C   0  0  0  0  0  0  0  0  0  0  0  0
   21.0794   30.0883  106.3949 C   0  0  0  0  0  0  0  0  0  0  0  0
   20.9900   28.6146  106.6538 C   0  0  0  0  0  0  0  0  0  0  0  0
   23.2509   34.0819  109.1925 C   0  0  0  0  0  0  0  0  0  0  0  0
   30.3579   31.3028  100.8532 N   0  0  0  0  0  0  0  0  0  0  0  0
   28.9209   32.7266   96.4521 C   0  0  0  0  0  0  0  0  0  0  0  0
   33.1816   33.4468  104.3307 F   0  0  0  0  0  0  0  0  0  0  0  0
   22.7973   29.2208  104.8632 C   0  0  0  0  0  0  0  0  0  0  0  0
   21.9152   34.2575  107.2369 C   0  0  0  0  0  0  0  0  0  0  0  0
   31.8754   33.0242  101.8360 C   0  0  0  0  0  0  0  0  0  0  0  0
   21.8322   34.3040  108.7200 C   0  0  0  0  0  0  0  0  0  0  0  0
   26.1484   35.3208  100.9215 C   0  0  0  0  0  0  0  0  0  0  0  0
   27.6529   32.7509   96.0602 O   0  0  0  0  0  0  0  0  0  0  0  0
   19.4348   28.7165  104.8768 O   0  0  0  0  0  0  0  0  0  0  0  0
   30.0730   27.6894   94.0629 O   0  0  0  0  0  0  0  0  0  0  0  0
   31.2269   31.8943  102.0753 C   0  0  0  0  0  0  0  0  0  0  0  0
   23.2149   31.9429  103.8914 C   0  0  0  0  0  0  0  0  0  0  0  0
   29.2328   34.1781   96.7663 C   0  0  0  0  0  0  0  0  0  0  0  0
   19.9892   31.7914  107.6566 O   0  0  0  0  0  0  0  0  0  0  0  0
   24.5196   31.1353  104.1446 C   0  0  0  0  0  0  0  0  0  0  0  0
   25.9198   35.1868  102.4080 C   0  0  0  0  0  0  0  0  0  0  0  0
   30.9939   34.1860  103.7586 C   0  0  0  0  0  0  0  0  0  0  0  0
   23.2538   34.2403  106.8244 O   0  0  0  0  0  0  0  0  0  0  0  0
   23.3454   28.1164  105.8514 C   0  0  0  0  0  0  0  0  0  0  0  0
   23.9279   34.4885  110.2958 O   0  0  0  0  0  0  0  0  0  0  0  0
   30.3522   36.4518  103.5769 O   0  0  0  0  0  0  0  0  0  0  0  0
   27.0516   35.7213  103.1371 C   0  0  0  0  0  0  0  0  0  0  0  0
   24.2220   29.6627  104.3676 C   0  0  0  0  0  0  0  0  0  0  0  0
   31.0167   30.9510   99.6764 C   0  0  0  0  0  0  0  0  0  0  0  0
   20.8051   34.7758  106.4235 C   0  0  0  0  0  0  0  0  0  0  0  0
   21.6609   28.2653  104.1317 C   0  0  0  0  0  0  0  0  0  0  0  0
   31.6461   31.2218  103.1112 F   0  0  0  0  0  0  0  0  0  0  0  0
   30.9059   32.5256   97.1092 O   0  0  0  0  0  0  0  0  0  0  0  0
   27.3898   34.4521  106.5249 C   0  0  0  0  0  0  0  0  0  0  0  0
   19.8172   30.8478  106.6377 C   0  0  0  0  0  0  0  0  0  0  0  0
   30.0683   35.3796  103.9305 C   0  0  0  0  0  0  0  0  0  0  0  0
   20.3979   32.9450  110.2439 C   0  0  0  0  0  0  0  0  0  0  0  0
   19.6315   35.0640  107.2052 O   0  0  0  0  0  0  0  0  0  0  0  0
   30.1897   31.3490   98.4469 C   0  0  0  0  0  0  0  0  0  0  0  0
   31.6351   33.0071  105.6115 F   0  0  0  0  0  0  0  0  0  0  0  0
   31.9745   33.9706  104.7935 C   0  0  0  0  0  0  0  0  0  0  0  0
   22.0910   31.7592  104.8431 C   0  0  0  0  0  0  0  0  0  0  0  0
   21.3729   33.8548  111.0756 C   0  0  0  0  0  0  0  0  0  0  0  0
   24.1462   34.2571  107.9307 C   0  0  0  0  0  0  0  0  0  0  0  0
   22.4284   36.3201   99.1145 O   0  0  0  0  0  0  0  0  0  0  0  0
   29.5225   28.7887   93.8894 C   0  0  0  0  0  0  0  0  0  0  0  0
   29.2875   29.8209   94.9276 C   0  0  0  0  0  0  0  0  0  0  0  0
   25.2979   33.5465  108.0720 O   0  0  0  0  0  0  0  0  0  0  0  0
   24.7667   35.7428   99.0829 N   0  0  0  0  0  0  0  0  0  0  0  0
   25.0544   36.2023  100.3459 C   0  0  0  0  0  0  0  0  0  0  0  0
   20.6791   34.3581  109.6752 C   0  0  0  0  0  0  0  0  0  0  0  0
   25.8266   34.8561   98.3094 C   0  0  0  0  0  0  0  0  0  0  0  0
   23.3686   35.5873   98.5835 C   0  0  0  0  0  0  0  0  0  0  0  0
   29.2879   31.2357   96.1892 C   0  0  0  0  0  0  0  0  0  0  0  0
   28.9853   29.1733   92.7951 O   0  0  0  0  0  0  0  0  0  0  0  0
   20.5655   28.0940  105.1408 C   0  0  0  0  0  0  0  0  0  0  0  0
   29.5723   29.8781   96.3586 O   0  0  0  0  0  0  0  0  0  0  0  0
   32.2982   35.0934  105.3523 F   0  0  0  0  0  0  0  0  0  0  0  0
   27.6507   35.4886  104.3849 C   0  0  0  0  0  0  0  0  0  0  0  0
   25.4277   35.5999  105.4306 C   0  0  0  0  0  0  0  0  0  0  0  0
   29.0663   35.1094  104.6618 N   0  0  0  0  0  0  0  0  0  0  0  0
  1  6  1  0
  1 12  1  0
  1 46  1  0
  2  5  1  0
  2 57  1  0
  3 38  1  0
  3 63  1  0
  3 64  2  0
  4 54  2  0
  5 56  1  0
  6  7  1  0
  6 39  1  0
  7 60  1  0
  8 15  1  0
  8 29  1  0
  8 48  1  0
  9 20  1  0
  9 33  1  0
 10 17  1  0
 10 22  1  0
 10 58  1  0
 11 45  1  0
 12 28  1  0
 12 32  1  0
 12 35  1  0
 13 15  1  0
 13 27  1  0
 13 34  1  0
 14 20  2  0
 15 55  1  0
 16 25  1  0
 16 54  1  0
 18 60  1  0
 19 50  2  0
 20 36  1  0
 21 24  1  0
 21 46  1  0
 23 39  1  0
 24 32  1  0
 25 31  1  0
 26 40  1  0
 26 45  1  0
 27 48  1  0
 30 40  2  0
 31 63  1  0
 33 43  1  0
 34 42  1  0
 35 60  1  0
 40 65  1  0
 41 47  1  0
 41 55  1  0
 44 45  1  0
 45 62  1  0
 48 52  1  0
 49 57  2  0
 50 51  1  0
 50 59  1  0
 51 61  1  0
 53 54  1  0
 53 56  1  0
 53 57  1  0
 58 61  1  0
 63 65  1  0
M  END
$$$$
