
     RDKit          3D

 28 28  0  0  0  0  0  0  0  0999 V2000
   27.0128   35.5087  102.6128 N   0  0  0  0  0  0  0  0  0  0  0  0
   24.0843   35.6884  100.3398 C   0  0  0  0  0  0  0  0  0  0  0  0
   29.0183   34.6614  103.7213 N   0  0  0  0  0  0  0  0  0  0  0  0
   21.8838   33.9331  108.6360 C   0  0  0  0  0  0  0  0  0  0  0  0
   19.6877   32.8059  108.1239 N   0  0  0  0  0  0  0  0  0  0  0  0
   26.8218   34.3885  104.6637 N   0  0  0  0  0  0  0  0  0  0  0  0
   25.4673   34.5364  104.6091 C   0  0  0  0  0  0  0  0  0  0  0  0
   32.4967   33.9767  102.1970 O   0  0  0  0  0  0  0  0  0  0  0  0
   29.5869   37.0233  103.6086 O   0  0  0  0  0  0  0  0  0  0  0  0
   23.4223   34.3610  109.1320 S   0  0  0  0  0  0  0  0  0  0  0  0
   29.2949   33.2395  103.4943 C   0  0  0  0  0  0  0  0  0  0  0  0
   25.6592   35.5487  102.4428 C   0  0  0  0  0  0  0  0  0  0  0  0
   21.1435   33.1097  106.1717 C   0  0  0  0  0  0  0  0  0  0  0  0
   23.4127   33.9561  106.2060 N   0  0  0  0  0  0  0  0  0  0  0  0
   30.4879   32.9591  102.7800 C   0  0  0  0  0  0  0  0  0  0  0  0
   27.5855   34.8776  103.6689 C   0  0  0  0  0  0  0  0  0  0  0  0
   24.6656   34.2132  105.8537 C   0  0  0  0  0  0  0  0  0  0  0  0
   25.3994   37.4543  100.9718 O   0  0  0  0  0  0  0  0  0  0  0  0
   31.7230   33.7506  103.3855 C   0  0  0  0  0  0  0  0  0  0  0  0
   25.8354   34.3388  107.2531 S   0  0  0  0  0  0  0  0  0  0  0  0
   21.1261   33.1824  107.6554 C   0  0  0  0  0  0  0  0  0  0  0  0
   24.8609   35.0270  103.4288 C   0  0  0  0  0  0  0  0  0  0  0  0
   25.1458   36.1585  101.1549 C   0  0  0  0  0  0  0  0  0  0  0  0
   31.0544   34.0299  105.7022 O   0  0  0  0  0  0  0  0  0  0  0  0
   31.5568   34.5920  104.5911 C   0  0  0  0  0  0  0  0  0  0  0  0
   32.1149   35.7824  104.7265 O   0  0  0  0  0  0  0  0  0  0  0  0
   22.4942   33.2570  105.4801 C   0  0  0  0  0  0  0  0  0  0  0  0
   29.5947   35.9395  103.7130 C   0  0  0  0  0  0  0  0  0  0  0  0
  1 12  2  0
  1 16  1  0
  2 23  1  0
  3 11  1  0
  3 16  1  0
  3 28  1  0
  4 10  1  0
  4 21  1  0
  5 21  1  0
  6  7  1  0
  6 16  2  0
  7 17  1  0
  7 22  2  0
  8 19  1  0
  9 28  2  0
 11 15  1  0
 12 22  1  0
 12 23  1  0
 13 21  1  0
 13 27  1  0
 14 17  1  0
 14 27  1  0
 15 19  1  0
 17 20  2  0
 18 23  1  0
 19 25  1  0
 24 25  2  0
 25 26  1  0
M  END
$$$$
