
     RDKit          3D

 25 26  0  0  0  0  0  0  0  0999 V2000
   26.5395   35.2498  103.1706 C   0  0  0  0  0  0  0  0  0  0  0  0
   28.8948   35.0362  103.9162 C   0  0  0  0  0  0  0  0  0  0  0  0
   26.1074   36.1065  100.3945 C   0  0  0  0  0  0  0  0  0  0  0  0
   25.9439   34.5072  108.0471 O   0  0  0  0  0  0  0  0  0  0  0  0
   28.9557   36.3878  103.7952 N   0  0  0  0  0  0  0  0  0  0  0  0
   24.4779   36.9756  101.8856 O   0  0  0  0  0  0  0  0  0  0  0  0
   30.3895   34.5525  103.9210 C   0  0  0  0  0  0  0  0  0  0  0  0
   25.5117   36.0457   98.9893 N   0  0  0  0  0  0  0  0  0  0  0  0
   25.6961   34.3839  105.7962 N   0  0  0  0  0  0  0  0  0  0  0  0
   29.9768   32.5218  102.6182 O   0  0  0  0  0  0  0  0  0  0  0  0
   24.9318   35.9873  101.2549 C   0  0  0  0  0  0  0  0  0  0  0  0
   31.9386   33.5555  102.2423 O   0  0  0  0  0  0  0  0  0  0  0  0
   27.0499   34.5627  105.5063 C   0  0  0  0  0  0  0  0  0  0  0  0
   31.0828   35.7665  103.5979 N   0  0  0  0  0  0  0  0  0  0  0  0
   30.8249   33.3861  102.8790 C   0  0  0  0  0  0  0  0  0  0  0  0
   24.8238   33.9969  104.6009 C   0  0  0  0  0  0  0  0  0  0  0  0
   27.4642   34.4819  104.1035 C   0  0  0  0  0  0  0  0  0  0  0  0
   23.3566   36.8822   99.0533 O   0  0  0  0  0  0  0  0  0  0  0  0
   30.2113   36.8486  103.6959 O   0  0  0  0  0  0  0  0  0  0  0  0
   24.0662   35.7710   99.2122 C   0  0  0  0  0  0  0  0  0  0  0  0
   25.2471   34.1418  107.1048 C   0  0  0  0  0  0  0  0  0  0  0  0
   24.0114   35.1775  100.5633 O   0  0  0  0  0  0  0  0  0  0  0  0
   30.7827   34.0014  105.2451 C   0  0  0  0  0  0  0  0  0  0  0  0
   25.0438   34.8987  103.2984 C   0  0  0  0  0  0  0  0  0  0  0  0
   23.9057   33.6543  107.2962 C   0  0  0  0  0  0  0  0  0  0  0  0
  1 17  1  0
  1 24  1  0
  2  5  2  0
  2  7  1  0
  2 17  1  0
  3  8  1  0
  3 11  1  0
  4 21  2  0
  5 19  1  0
  6 11  2  0
  7 14  1  0
  7 15  1  0
  7 23  1  0
  8 20  1  0
  9 13  1  0
  9 16  1  0
  9 21  1  0
 10 15  2  0
 11 22  1  0
 12 15  1  0
 13 17  1  0
 14 19  1  0
 16 24  1  0
 18 20  1  0
 20 22  1  0
 21 25  1  0
M  END
$$$$
