
     RDKit          3D

 20 21  0  0  0  0  0  0  0  0999 V2000
  -14.6974   -6.2077    4.5306 C   0  0  0  0  0  0  0  0  0  0  0  0
  -11.7738   -6.2563    5.4535 C   0  0  0  0  0  0  0  0  0  0  0  0
  -13.7875   -6.7061    3.7487 N   0  0  0  0  0  0  0  0  0  0  0  0
  -16.9980   -5.3626    4.8855 C   0  0  0  0  0  0  0  0  0  0  0  0
  -12.9030   -5.6128    5.8072 N   0  0  0  0  0  0  0  0  0  0  0  0
  -20.9428   -5.9935    3.3584 N   0  0  0  0  0  0  0  0  0  0  0  0
  -19.2113   -4.4795    4.1925 C   0  0  0  0  0  0  0  0  0  0  0  0
  -20.4819   -4.6808    3.5310 C   0  0  0  0  0  0  0  0  0  0  0  0
  -20.4310   -7.1334    4.1731 C   0  0  0  0  0  0  0  0  0  0  0  0
  -11.4413   -7.1816    3.3639 C   0  0  0  0  0  0  0  0  0  0  0  0
  -16.1218   -6.4469    4.3702 C   0  0  0  0  0  0  0  0  0  0  0  0
  -21.8479   -6.1939    2.2816 C   0  0  0  0  0  0  0  0  0  0  0  0
  -14.2401   -5.5634    5.6683 N   0  0  0  0  0  0  0  0  0  0  0  0
  -20.4930   -8.3500    3.4240 O   0  0  0  0  0  0  0  0  0  0  0  0
  -18.3861   -5.5914    4.5552 C   0  0  0  0  0  0  0  0  0  0  0  0
  -12.7235   -6.7147    3.1012 C   0  0  0  0  0  0  0  0  0  0  0  0
  -21.2350   -7.2465    5.5181 C   0  0  0  0  0  0  0  0  0  0  0  0
  -10.9493   -6.6991    4.5581 N   0  0  0  0  0  0  0  0  0  0  0  0
  -20.9983   -3.5806    2.7275 C   0  0  0  0  0  0  0  0  0  0  0  0
  -18.9115   -6.9514    4.5976 C   0  0  0  0  0  0  0  0  0  0  0  0
  1  3  2  3
  1 11  1  0
  1 13  1  0
  2  5  1  0
  2 18  1  0
  3 16  1  0
  4 11  1  0
  4 15  1  0
  5 13  1  0
  6  8  1  0
  6  9  1  0
  6 12  1  0
  7  8  1  0
  7 15  1  0
  8 19  1  0
  9 14  1  0
  9 17  1  0
  9 20  1  0
 10 16  1  0
 10 18  1  0
 15 20  2  0
M  END
$$$$
