
     RDKit          3D

 20 22  0  0  0  0  0  0  0  0999 V2000
   17.1017   33.9230   13.1845 C   0  0  0  0  0  0  0  0  0  0  0  0
   10.0555   35.5351   18.0839 N   0  0  0  0  0  0  0  0  0  0  0  0
   12.4449   34.4935   15.6067 C   0  0  0  0  0  0  0  0  0  0  0  0
   12.8623   33.1913   15.2950 C   0  0  0  0  0  0  0  0  0  0  0  0
   10.8478   32.3292   16.1993 N   0  0  0  0  0  0  0  0  0  0  0  0
   11.8702   36.8092   17.5185 O   0  0  0  0  0  0  0  0  0  0  0  0
   15.2137   35.1567   12.2102 C   0  0  0  0  0  0  0  0  0  0  0  0
   15.6561   34.1576   13.0476 N   0  0  0  0  0  0  0  0  0  0  0  0
   12.0035   32.1107   15.5509 C   0  0  0  0  0  0  0  0  0  0  0  0
   10.5639   33.5848   16.7798 C   0  0  0  0  0  0  0  0  0  0  0  0
   11.4076   34.6568   16.5173 C   0  0  0  0  0  0  0  0  0  0  0  0
   13.0977   35.6261   14.9109 C   0  0  0  0  0  0  0  0  0  0  0  0
   12.9514   36.9220   15.0434 O   0  0  0  0  0  0  0  0  0  0  0  0
   14.3260   35.9383   12.8546 N   0  0  0  0  0  0  0  0  0  0  0  0
   14.1132   32.9377   14.6899 C   0  0  0  0  0  0  0  0  0  0  0  0
   14.0155   35.2548   13.9523 C   0  0  0  0  0  0  0  0  0  0  0  0
    9.5502   33.8587   17.5571 O   0  0  0  0  0  0  0  0  0  0  0  0
   15.2621   35.1289   10.6653 C   0  0  0  0  0  0  0  0  0  0  0  0
   11.0961   35.8221   17.3289 C   0  0  0  0  0  0  0  0  0  0  0  0
   14.6594   34.0201   13.9903 C   0  0  0  0  0  0  0  0  0  0  0  0
  1  8  1  0
  2 19  1  0
  3  4  1  0
  3 11  1  0
  3 12  2  0
  4  9  1  0
  4 15  1  0
  5  9  2  0
  5 10  1  0
  6 19  2  0
  7  8  1  0
  7 14  2  0
  7 18  1  0
  8 20  1  0
 10 11  1  0
 10 17  2  0
 11 19  1  0
 12 13  1  0
 12 16  1  0
 14 16  1  0
 15 20  1  0
 16 20  1  0
M  END
$$$$
