
     RDKit          3D

 44 49  0  0  0  0  0  0  0  0999 V2000
   12.3634   31.1137   15.1620 C   0  0  0  0  0  0  0  0  0  0  0  0
   13.6362   34.8186   12.0197 C   0  0  0  0  0  0  0  0  0  0  0  0
   13.8625   36.2243   15.4192 C   0  0  0  0  0  0  0  0  0  0  0  0
   16.7139   38.7560   14.5513 O   0  0  0  0  0  0  0  0  0  0  0  0
   14.3087   33.8733   11.1222 C   0  0  0  0  0  0  0  0  0  0  0  0
   11.2926   31.3528   15.9661 C   0  0  0  0  0  0  0  0  0  0  0  0
   11.0611   29.2994   15.2568 C   0  0  0  0  0  0  0  0  0  0  0  0
   12.1795   33.6124   16.3692 C   0  0  0  0  0  0  0  0  0  0  0  0
   16.3344   32.1124   11.7982 C   0  0  0  0  0  0  0  0  0  0  0  0
   15.6574   33.2068   10.9780 C   0  0  0  0  0  0  0  0  0  0  0  0
   15.6924   31.5797   15.1636 O   0  0  0  0  0  0  0  0  0  0  0  0
   12.2130   29.7918   14.7529 C   0  0  0  0  0  0  0  0  0  0  0  0
   12.7450   36.1549   16.4172 C   0  0  0  0  0  0  0  0  0  0  0  0
   16.6423   35.9747   12.6515 C   0  0  0  0  0  0  0  0  0  0  0  0
   11.9079   34.9945   16.5386 C   0  0  0  0  0  0  0  0  0  0  0  0
   13.4095   36.4399   13.9821 C   0  0  0  0  0  0  0  0  0  0  0  0
   12.2900   34.9301   11.7761 O   0  0  0  0  0  0  0  0  0  0  0  0
   10.4779   30.3495   15.9857 N   0  0  0  0  0  0  0  0  0  0  0  0
   16.9540   31.5469    9.5551 O   0  0  0  0  0  0  0  0  0  0  0  0
   17.4387   32.7805   12.7186 C   0  0  0  0  0  0  0  0  0  0  0  0
   12.3225   34.0880   15.0905 C   0  0  0  0  0  0  0  0  0  0  0  0
   16.6025   36.0284   11.4343 O   0  0  0  0  0  0  0  0  0  0  0  0
    9.7274   34.1734   17.3344 O   0  0  0  0  0  0  0  0  0  0  0  0
   13.4548   33.3795   14.3556 C   0  0  0  0  0  0  0  0  0  0  0  0
   14.2137   35.8519   12.8919 C   0  0  0  0  0  0  0  0  0  0  0  0
   15.3553   31.2618   12.7226 C   0  0  0  0  0  0  0  0  0  0  0  0
   12.5458   37.2770   17.1708 C   0  0  0  0  0  0  0  0  0  0  0  0
   14.2765   28.5950   13.9854 C   0  0  0  0  0  0  0  0  0  0  0  0
   11.4219   37.3460   17.9542 C   0  0  0  0  0  0  0  0  0  0  0  0
   17.9241   38.0404   12.7292 N   0  0  0  0  0  0  0  0  0  0  0  0
   17.8072   38.9250   13.8260 C   0  0  0  0  0  0  0  0  0  0  0  0
   14.6524   31.3180   14.1651 C   0  0  0  0  0  0  0  0  0  0  0  0
   15.2921   28.7544   12.8375 C   0  0  0  0  0  0  0  0  0  0  0  0
   10.7011   35.1784   17.3148 C   0  0  0  0  0  0  0  0  0  0  0  0
   12.9342   29.1909   13.6606 C   0  0  0  0  0  0  0  0  0  0  0  0
   16.2555   29.9612   13.0663 C   0  0  0  0  0  0  0  0  0  0  0  0
   17.9076   30.2586   11.0713 O   0  0  0  0  0  0  0  0  0  0  0  0
   13.4018   31.9547   14.7121 C   0  0  0  0  0  0  0  0  0  0  0  0
    9.9583   32.8827   17.0363 N   0  0  0  0  0  0  0  0  0  0  0  0
   17.7533   36.6535   13.3484 C   0  0  0  0  0  0  0  0  0  0  0  0
   11.2517   32.5770   16.7055 C   0  0  0  0  0  0  0  0  0  0  0  0
   10.4721   36.3521   17.9909 C   0  0  0  0  0  0  0  0  0  0  0  0
   17.0254   31.1824   10.7931 C   0  0  0  0  0  0  0  0  0  0  0  0
   15.5431   35.5724   13.4436 O   0  0  0  0  0  0  0  0  0  0  0  0
  1  6  2  0
  1 12  1  0
  1 38  1  0
  2  5  1  0
  2 17  1  0
  2 25  1  0
  3 13  1  0
  3 16  1  0
  4 31  1  0
  5 10  1  0
  6 18  1  0
  6 41  1  0
  7 12  1  0
  7 18  1  0
  8 15  1  0
  8 21  1  0
  8 41  1  0
  9 10  1  0
  9 20  1  0
  9 26  1  0
  9 43  1  0
 11 32  1  0
 12 35  1  0
 13 15  1  0
 13 27  1  0
 14 22  2  0
 14 40  1  0
 14 44  1  0
 15 34  1  0
 16 25  1  0
 19 43  2  0
 21 24  1  0
 23 34  1  0
 23 39  1  0
 24 38  1  0
 25 44  1  0
 26 32  1  0
 26 36  1  0
 27 29  2  0
 28 33  1  0
 28 35  1  0
 29 42  1  0
 30 31  1  0
 30 40  1  0
 32 38  1  0
 33 36  1  0
 34 42  2  0
 37 43  1  0
 39 41  2  0
M  END
$$$$
