
     RDKit          3D

 19 21  0  0  0  0  0  0  0  0999 V2000
    9.6806   33.5369   17.3213 N   0  0  0  0  0  0  0  0  0  0  0  0
   13.5885   34.0662   14.8651 C   0  0  0  0  0  0  0  0  0  0  0  0
   15.6441   34.7829   13.0734 C   0  0  0  0  0  0  0  0  0  0  0  0
   12.6406   33.0791   15.1903 C   0  0  0  0  0  0  0  0  0  0  0  0
   14.7189   33.7697   13.8502 C   0  0  0  0  0  0  0  0  0  0  0  0
   10.4490   32.6525   16.5643 C   0  0  0  0  0  0  0  0  0  0  0  0
   11.5949   33.3579   16.0061 C   0  0  0  0  0  0  0  0  0  0  0  0
   17.0888   36.2619   11.0491 C   0  0  0  0  0  0  0  0  0  0  0  0
   16.0425   35.3878   10.7243 C   0  0  0  0  0  0  0  0  0  0  0  0
   16.6825   35.7090   13.4091 C   0  0  0  0  0  0  0  0  0  0  0  0
   17.3811   36.4376   12.4147 C   0  0  0  0  0  0  0  0  0  0  0  0
   11.4734   34.6812   16.5195 C   0  0  0  0  0  0  0  0  0  0  0  0
   12.4016   35.6591   16.2227 C   0  0  0  0  0  0  0  0  0  0  0  0
   13.8517   33.1477   12.7229 C   0  0  0  0  0  0  0  0  0  0  0  0
   15.6488   32.9512   14.5622 O   0  0  0  0  0  0  0  0  0  0  0  0
   10.3543   34.8017   17.2834 C   0  0  0  0  0  0  0  0  0  0  0  0
   13.4907   35.3562   15.3902 C   0  0  0  0  0  0  0  0  0  0  0  0
   15.4000   34.7075   11.7071 C   0  0  0  0  0  0  0  0  0  0  0  0
   10.1859   31.4102   16.4188 O   0  0  0  0  0  0  0  0  0  0  0  0
  1  6  1  0
  1 16  1  0
  2  4  2  0
  2  5  1  0
  2 17  1  0
  3  5  1  0
  3 10  1  0
  3 18  2  0
  4  7  1  0
  5 14  1  0
  5 15  1  0
  6  7  1  0
  6 19  2  0
  7 12  2  0
  8  9  2  0
  8 11  1  0
  9 18  1  0
 10 11  2  0
 12 13  1  0
 12 16  1  0
 13 17  2  0
M  END
$$$$
