
     RDKit          3D

 17 19  0  0  0  0  0  0  0  0999 V2000
   12.5960   35.7565   16.0106 C   0  0  0  0  0  0  0  0  0  0  0  0
   13.6678   35.8823   15.2275 N   0  0  0  0  0  0  0  0  0  0  0  0
   14.4165   35.4805   11.5048 N   0  0  0  0  0  0  0  0  0  0  0  0
   15.7207   34.9498   10.8990 C   0  0  0  0  0  0  0  0  0  0  0  0
   16.4857   33.6899   13.3464 S   0  0  0  0  0  0  0  0  0  0  0  0
   11.4472   32.1123   16.1028 C   0  0  0  0  0  0  0  0  0  0  0  0
    9.9176   33.6610   17.2286 C   0  0  0  0  0  0  0  0  0  0  0  0
   10.2225   32.3568   16.8069 C   0  0  0  0  0  0  0  0  0  0  0  0
   12.2751   33.1787   15.8087 C   0  0  0  0  0  0  0  0  0  0  0  0
   11.8997   36.7284   16.7030 C   0  0  0  0  0  0  0  0  0  0  0  0
   10.7316   36.0477   17.3179 C   0  0  0  0  0  0  0  0  0  0  0  0
   14.7185   33.8712   13.2426 C   0  0  0  0  0  0  0  0  0  0  0  0
   16.8548   34.6006   11.8803 C   0  0  0  0  0  0  0  0  0  0  0  0
   11.9726   34.4629   16.1865 C   0  0  0  0  0  0  0  0  0  0  0  0
   14.5332   35.4535   13.0167 C   0  0  0  0  0  0  0  0  0  0  0  0
   10.7837   34.6902   16.9516 C   0  0  0  0  0  0  0  0  0  0  0  0
   14.1415   34.7748   14.4284 C   0  0  0  0  0  0  0  0  0  0  0  0
  1  2  2  3
  1 10  1  0
  1 14  1  0
  2 17  1  0
  3  4  1  0
  3 15  1  0
  4 13  1  0
  5 12  1  0
  5 13  1  0
  6  8  2  0
  6  9  1  0
  7  8  1  0
  7 16  2  0
  9 14  2  0
 10 11  1  0
 11 16  1  0
 12 15  1  0
 12 17  1  0
 14 16  1  0
M  END
$$$$
