
     RDKit          3D

 28 34  0  0  0  0  0  0  0  0999 V2000
   17.2069   32.7721   12.3589 C   0  0  0  0  0  0  0  0  0  0  0  0
   11.0805   34.9754   16.8331 C   0  0  0  0  0  0  0  0  0  0  0  0
   17.7383   34.9927   11.2419 C   0  0  0  0  0  0  0  0  0  0  0  0
   10.0152   34.2074   17.1546 C   0  0  0  0  0  0  0  0  0  0  0  0
   15.3028   32.1870   13.9108 C   0  0  0  0  0  0  0  0  0  0  0  0
   10.9468   36.3026   17.3460 C   0  0  0  0  0  0  0  0  0  0  0  0
   17.8331   31.8586   10.2531 O   0  0  0  0  0  0  0  0  0  0  0  0
   14.6366   35.4021   11.3328 C   0  0  0  0  0  0  0  0  0  0  0  0
   16.1996   34.8521   11.4435 C   0  0  0  0  0  0  0  0  0  0  0  0
   13.1116   33.4259   15.0925 C   0  0  0  0  0  0  0  0  0  0  0  0
   18.1250   34.2213   10.0202 C   0  0  0  0  0  0  0  0  0  0  0  0
   11.2244   32.5783   16.1608 C   0  0  0  0  0  0  0  0  0  0  0  0
   15.5099   35.0713   10.1827 C   0  0  0  0  0  0  0  0  0  0  0  0
   16.5319   31.6461   13.2756 C   0  0  0  0  0  0  0  0  0  0  0  0
   14.9873   33.5471   13.3930 C   0  0  0  0  0  0  0  0  0  0  0  0
   10.1053   32.9108   16.8679 O   0  0  0  0  0  0  0  0  0  0  0  0
   12.1712   34.8647   16.0844 C   0  0  0  0  0  0  0  0  0  0  0  0
   14.2385   31.4268   14.3869 N   0  0  0  0  0  0  0  0  0  0  0  0
   11.9482   31.5122   15.5757 C   0  0  0  0  0  0  0  0  0  0  0  0
   13.1106   31.9777   14.9459 C   0  0  0  0  0  0  0  0  0  0  0  0
   13.0936   35.7956   15.7514 C   0  0  0  0  0  0  0  0  0  0  0  0
   18.0913   33.1169   11.0883 C   0  0  0  0  0  0  0  0  0  0  0  0
   14.0129   34.1464   14.3641 N   0  0  0  0  0  0  0  0  0  0  0  0
   13.0717   36.9598   16.5109 C   0  0  0  0  0  0  0  0  0  0  0  0
   11.9826   33.6978   15.8549 C   0  0  0  0  0  0  0  0  0  0  0  0
   11.9692   37.2176   17.3049 C   0  0  0  0  0  0  0  0  0  0  0  0
   14.0512   35.4637   14.8075 C   0  0  0  0  0  0  0  0  0  0  0  0
   15.9653   33.6339   12.2118 C   0  0  0  0  0  0  0  0  0  0  0  0
  1 14  1  0
  1 22  1  0
  1 28  1  0
  2  4  2  0
  2  6  1  0
  2 17  1  0
  3  9  1  0
  3 11  1  0
  4 16  1  0
  5 14  1  0
  5 15  1  0
  5 18  1  0
  6 26  2  0
  7 22  1  0
  8 13  1  0
  9 13  1  0
  9 28  1  0
 10 20  1  0
 10 23  1  0
 10 25  1  0
 11 22  1  0
 12 16  1  0
 12 19  1  0
 12 25  1  0
 15 23  1  0
 15 28  1  0
 17 21  1  0
 17 25  2  0
 18 20  2  0
 19 20  1  0
 21 24  1  0
 21 27  2  0
 23 27  1  0
 24 26  1  0
M  END
$$$$
