
     RDKit          3D

 13 13  0  0  0  0  0  0  0  0999 V2000
   16.0471   35.3047   11.7534 C   0  0  0  0  0  0  0  0  0  0  0  0
   14.2954   36.0038   13.7542 N   0  0  0  0  0  0  0  0  0  0  0  0
   13.7417   35.2563   12.5168 C   0  0  0  0  0  0  0  0  0  0  0  0
   10.2677   32.3937   16.7430 C   0  0  0  0  0  0  0  0  0  0  0  0
   12.5351   35.8653   15.7572 C   0  0  0  0  0  0  0  0  0  0  0  0
   11.4048   32.2674   15.9111 C   0  0  0  0  0  0  0  0  0  0  0  0
   16.8256   35.8188   12.9309 C   0  0  0  0  0  0  0  0  0  0  0  0
   13.7988   35.6448   15.0390 C   0  0  0  0  0  0  0  0  0  0  0  0
   10.6764   34.7292   16.9846 C   0  0  0  0  0  0  0  0  0  0  0  0
   14.9316   34.3185   12.1029 C   0  0  0  0  0  0  0  0  0  0  0  0
    9.9440   33.6119   17.2733 N   0  0  0  0  0  0  0  0  0  0  0  0
   11.7627   34.6138   16.1556 C   0  0  0  0  0  0  0  0  0  0  0  0
   12.1376   33.3873   15.6518 C   0  0  0  0  0  0  0  0  0  0  0  0
  1  7  1  0
  1 10  1  0
  2  3  1  0
  2  8  1  0
  3 10  1  0
  4  6  1  0
  4 11  1  0
  5  8  1  0
  5 12  2  3
  6 13  2  0
  9 11  2  0
  9 12  1  0
 12 13  1  0
M  END
$$$$
