
     RDKit          3D

 27 31  0  0  0  0  0  0  0  0999 V2000
   12.0147   35.0542   16.1723 C   0  0  0  0  0  0  0  0  0  0  0  0
   17.3513   33.2628   12.4631 C   0  0  0  0  0  0  0  0  0  0  0  0
   17.1606   32.0563   11.5007 C   0  0  0  0  0  0  0  0  0  0  0  0
   11.6994   31.4382   15.4064 C   0  0  0  0  0  0  0  0  0  0  0  0
   12.8866   35.9015   15.5274 O   0  0  0  0  0  0  0  0  0  0  0  0
   13.4172   34.8569   13.0470 N   0  0  0  0  0  0  0  0  0  0  0  0
   13.6391   36.7171   18.1819 C   0  0  0  0  0  0  0  0  0  0  0  0
   11.6039   33.7004   16.0702 C   0  0  0  0  0  0  0  0  0  0  0  0
   11.2897   37.0036   17.5637 C   0  0  0  0  0  0  0  0  0  0  0  0
   14.2070   35.2933   12.0631 C   0  0  0  0  0  0  0  0  0  0  0  0
   15.5823   32.1126   14.5314 C   0  0  0  0  0  0  0  0  0  0  0  0
    9.8711   32.2451   16.7879 N   0  0  0  0  0  0  0  0  0  0  0  0
   10.4146   33.4758   16.7648 C   0  0  0  0  0  0  0  0  0  0  0  0
   15.1325   33.3067   13.6776 C   0  0  0  0  0  0  0  0  0  0  0  0
   10.0229   34.7195   17.3625 C   0  0  0  0  0  0  0  0  0  0  0  0
   10.5281   31.2632   16.1069 N   0  0  0  0  0  0  0  0  0  0  0  0
   17.9930   34.4901   11.8373 C   0  0  0  0  0  0  0  0  0  0  0  0
   12.6746   37.5461   17.2933 C   0  0  0  0  0  0  0  0  0  0  0  0
   13.6619   36.1066   11.0790 N   0  0  0  0  0  0  0  0  0  0  0  0
   11.0257   35.6492   17.0415 C   0  0  0  0  0  0  0  0  0  0  0  0
   13.2183   33.1962   14.8314 N   0  0  0  0  0  0  0  0  0  0  0  0
   12.2234   32.7225   15.4124 C   0  0  0  0  0  0  0  0  0  0  0  0
   12.9731   37.2853   15.8491 C   0  0  0  0  0  0  0  0  0  0  0  0
   13.8501   33.8815   13.8866 C   0  0  0  0  0  0  0  0  0  0  0  0
   16.8749   35.4921   11.3517 C   0  0  0  0  0  0  0  0  0  0  0  0
   15.9525   33.8366   12.7223 C   0  0  0  0  0  0  0  0  0  0  0  0
   15.5782   34.9148   11.9814 N   0  0  0  0  0  0  0  0  0  0  0  0
  1  5  1  0
  1  8  1  0
  1 20  1  0
  2  3  1  0
  2 17  1  0
  2 26  1  0
  4 16  2  0
  4 22  1  0
  5 23  1  0
  6 10  1  0
  6 24  2  0
  7 18  1  0
  8 13  1  0
  8 22  2  0
  9 18  1  0
  9 20  2  0
 10 19  2  0
 10 27  1  0
 11 14  1  0
 12 13  2  0
 12 16  1  0
 13 15  1  0
 14 24  1  0
 14 26  2  0
 15 20  1  0
 17 25  1  0
 18 23  1  0
 21 22  1  0
 21 24  1  0
 25 27  1  0
 26 27  1  0
M  END
$$$$
