
     RDKit          3D

  9  9  0  0  0  0  0  0  0  0999 V2000
   13.4733   35.3349   12.5545 N   0  0  0  0  0  0  0  0  0  0  0  0
   13.0756   35.9332   14.8424 C   0  0  0  0  0  0  0  0  0  0  0  0
   13.3664   34.9314   13.8723 C   0  0  0  0  0  0  0  0  0  0  0  0
   12.2789   34.6944   16.7812 C   0  0  0  0  0  0  0  0  0  0  0  0
   13.5931   33.6303   14.3704 C   0  0  0  0  0  0  0  0  0  0  0  0
   13.1299   35.5547   16.1625 C   0  0  0  0  0  0  0  0  0  0  0  0
   10.9331   32.4393   16.9653 C   0  0  0  0  0  0  0  0  0  0  0  0
   12.8523   32.9160   15.2525 N   0  0  0  0  0  0  0  0  0  0  0  0
   12.1082   33.3688   16.3095 C   0  0  0  0  0  0  0  0  0  0  0  0
  1  3  1  0
  2  3  2  0
  2  6  1  0
  3  5  1  0
  4  6  1  0
  4  9  2  0
  5  8  1  0
  7  9  1  0
  8  9  1  0
M  END
$$$$
