
     RDKit          3D

 28 31  0  0  0  0  0  0  0  0999 V2000
   35.2433   43.3213   17.5724 C   0  0  0  0  0  0  0  0  0  0  0  0
   38.3026   45.3441   16.8679 C   0  0  0  0  0  0  0  0  0  0  0  0
   31.7715   39.9605   18.3991 C   0  0  0  0  0  0  0  0  0  0  0  0
   36.0333   42.0850   18.0520 C   0  0  0  0  0  0  0  0  0  0  0  0
   33.4039   41.8144   18.0745 C   0  0  0  0  0  0  0  0  0  0  0  0
   35.3156   40.8671   20.0257 C   0  0  0  0  0  0  0  0  0  0  0  0
   36.2759   41.9683   19.5874 C   0  0  0  0  0  0  0  0  0  0  0  0
   30.2868   39.6673   18.6144 C   0  0  0  0  0  0  0  0  0  0  0  0
   37.9029   46.0587   15.7300 C   0  0  0  0  0  0  0  0  0  0  0  0
   37.4203   44.4627   17.4165 C   0  0  0  0  0  0  0  0  0  0  0  0
   36.0885   44.3974   17.0090 C   0  0  0  0  0  0  0  0  0  0  0  0
   36.5621   46.1489   15.3990 C   0  0  0  0  0  0  0  0  0  0  0  0
   35.6554   45.3275   16.0516 C   0  0  0  0  0  0  0  0  0  0  0  0
   33.9940   41.1972   19.3708 C   0  0  0  0  0  0  0  0  0  0  0  0
   32.0152   44.0018   15.6379 C   0  0  0  0  0  0  0  0  0  0  0  0
   33.1849   44.3889   16.5591 C   0  0  0  0  0  0  0  0  0  0  0  0
   29.6956   41.7196   17.1007 C   0  0  0  0  0  0  0  0  0  0  0  0
   39.0539   46.7073   14.6290 Cl  0  0  0  0  0  0  0  0  0  0  0  0
   31.0476   42.3671   17.2824 C   0  0  0  0  0  0  0  0  0  0  0  0
   26.8611   41.8049   19.9563 C   0  0  0  0  0  0  0  0  0  0  0  0
   30.8842   43.7549   16.6079 C   0  0  0  0  0  0  0  0  0  0  0  0
   27.2432   41.8987   18.4884 C   0  0  0  0  0  0  0  0  0  0  0  0
   39.7079   45.5055   17.5576 C   0  0  0  0  0  0  0  0  0  0  0  0
   31.9409   41.4446   18.0977 C   0  0  0  0  0  0  0  0  0  0  0  0
   29.3207   40.7006   18.0893 C   0  0  0  0  0  0  0  0  0  0  0  0
   33.7563   43.1771   17.3721 C   0  0  0  0  0  0  0  0  0  0  0  0
   27.8401   40.5790   18.0101 C   0  0  0  0  0  0  0  0  0  0  0  0
   26.6038   43.2096   20.4127 O   0  0  0  0  0  0  0  0  0  0  0  0
  1  4  1  0
  1 11  1  0
  1 26  2  0
  2  9  2  0
  2 10  1  0
  2 23  1  0
  3  8  1  0
  3 24  1  0
  4  7  1  0
  5 14  1  0
  5 24  1  0
  5 26  1  0
  6  7  1  0
  6 14  1  0
  8 25  1  0
  9 12  1  0
  9 18  1  0
 10 11  2  0
 11 13  1  0
 12 13  2  0
 15 16  1  0
 15 21  1  0
 16 26  1  0
 17 19  1  0
 17 25  1  0
 19 21  1  0
 19 24  1  0
 20 22  1  0
 20 28  1  0
 22 27  1  0
 25 27  1  0
M  END
$$$$
