
     RDKit          3D

 41 45  0  0  0  0  0  0  0  0999 V2000
   27.5744   44.1769   17.3259 C   0  0  0  0  0  0  0  0  0  0  0  0
   31.6719   41.1319   19.6827 N   0  0  0  0  0  0  0  0  0  0  0  0
   32.4334   44.5502   16.9387 C   0  0  0  0  0  0  0  0  0  0  0  0
   30.8733   39.9883   19.4040 C   0  0  0  0  0  0  0  0  0  0  0  0
   37.2663   43.2385   19.9703 C   0  0  0  0  0  0  0  0  0  0  0  0
   28.8650   38.7455   20.1600 C   0  0  0  0  0  0  0  0  0  0  0  0
   37.8103   45.7404   15.2620 C   0  0  0  0  0  0  0  0  0  0  0  0
   27.3016   38.7901   19.7872 O   0  0  0  0  0  0  0  0  0  0  0  0
   40.7399   45.8976   17.9359 C   0  0  0  0  0  0  0  0  0  0  0  0
   37.0644   43.2090   18.4144 C   0  0  0  0  0  0  0  0  0  0  0  0
   29.7482   45.2140   15.7940 O   0  0  0  0  0  0  0  0  0  0  0  0
   33.8026   41.8755   18.6562 C   0  0  0  0  0  0  0  0  0  0  0  0
   30.2063   43.0408   15.3098 O   0  0  0  0  0  0  0  0  0  0  0  0
   39.5432   45.1711   18.4316 N   0  0  0  0  0  0  0  0  0  0  0  0
   41.6480   46.1774   19.0511 C   0  0  0  0  0  0  0  0  0  0  0  0
   29.5151   39.9449   19.7081 O   0  0  0  0  0  0  0  0  0  0  0  0
   39.9302   44.6422   19.7239 C   0  0  0  0  0  0  0  0  0  0  0  0
   31.0753   44.0064   17.3352 C   0  0  0  0  0  0  0  0  0  0  0  0
   29.9011   44.0038   16.3189 C   0  0  0  0  0  0  0  0  0  0  0  0
   29.6958   42.1139   17.7927 O   0  0  0  0  0  0  0  0  0  0  0  0
   37.1985   44.4960   17.6255 C   0  0  0  0  0  0  0  0  0  0  0  0
   31.1234   42.5410   17.7720 C   0  0  0  0  0  0  0  0  0  0  0  0
   37.0239   46.4949   12.9857 C   0  0  0  0  0  0  0  0  0  0  0  0
   38.7318   45.6606   16.2464 N   0  0  0  0  0  0  0  0  0  0  0  0
   27.6786   39.0966   20.9955 C   0  0  0  0  0  0  0  0  0  0  0  0
   41.2814   45.1678   20.1450 C   0  0  0  0  0  0  0  0  0  0  0  0
   38.4752   45.1050   17.4499 C   0  0  0  0  0  0  0  0  0  0  0  0
   28.7845   43.2030   17.2123 C   0  0  0  0  0  0  0  0  0  0  0  0
   37.9861   47.5408   13.5687 C   0  0  0  0  0  0  0  0  0  0  0  0
   36.4980   45.4598   15.5871 C   0  0  0  0  0  0  0  0  0  0  0  0
   35.1623   41.1304   18.7514 C   0  0  0  0  0  0  0  0  0  0  0  0
   29.3289   37.5171   20.4123 O   0  0  0  0  0  0  0  0  0  0  0  0
   34.6171   46.3253   18.0142 O   0  0  0  0  0  0  0  0  0  0  0  0
   34.7960   45.2342   17.1813 C   0  0  0  0  0  0  0  0  0  0  0  0
   36.2902   41.9808   18.1715 O   0  0  0  0  0  0  0  0  0  0  0  0
   34.1515   43.3691   18.7126 C   0  0  0  0  0  0  0  0  0  0  0  0
   36.2220   45.0360   16.8132 N   0  0  0  0  0  0  0  0  0  0  0  0
   33.8123   44.1901   17.4903 C   0  0  0  0  0  0  0  0  0  0  0  0
   32.2464   41.9108   18.5988 C   0  0  0  0  0  0  0  0  0  0  0  0
   38.1776   46.1196   13.7973 C   0  0  0  0  0  0  0  0  0  0  0  0
   31.4866   38.9735   19.0716 O   0  0  0  0  0  0  0  0  0  0  0  0
  1 28  1  0
  2  4  1  0
  2 39  1  0
  3 18  1  0
  3 38  2  0
  4 16  1  0
  4 41  2  0
  5 10  1  0
  6 16  1  0
  6 25  1  0
  6 32  2  0
  7 24  1  0
  7 30  2  0
  7 40  1  0
  8 25  1  0
  9 14  1  0
  9 15  1  0
 10 21  1  0
 10 35  1  0
 11 19  1  0
 12 31  1  0
 12 36  1  0
 12 39  1  0
 13 19  1  0
 14 17  1  0
 14 27  1  0
 15 26  1  0
 17 26  1  0
 18 19  1  0
 18 22  1  0
 19 28  1  0
 20 22  1  0
 20 28  1  0
 21 27  1  0
 21 37  1  0
 22 39  1  0
 23 40  1  0
 24 27  2  0
 29 40  1  0
 30 37  1  0
 31 35  1  0
 33 34  2  0
 34 37  1  0
 34 38  1  0
 36 38  1  0
M  END
$$$$
