
     RDKit          3D

 26 28  0  0  0  0  0  0  0  0999 V2000
   32.2688   41.1215   18.6064 C   0  0  0  0  0  0  0  0  0  0  0  0
   27.1853   43.2624   19.3285 O   0  0  0  0  0  0  0  0  0  0  0  0
   31.5837   39.8033   18.6855 C   0  0  0  0  0  0  0  0  0  0  0  0
   32.2303   38.6685   18.3301 O   0  0  0  0  0  0  0  0  0  0  0  0
   28.9762   42.7942   17.8515 C   0  0  0  0  0  0  0  0  0  0  0  0
   37.0513   45.2714   16.4621 C   0  0  0  0  0  0  0  0  0  0  0  0
   29.2859   40.9091   19.0219 C   0  0  0  0  0  0  0  0  0  0  0  0
   36.7876   44.6279   17.7592 C   0  0  0  0  0  0  0  0  0  0  0  0
   33.6553   41.3494   17.9263 C   0  0  0  0  0  0  0  0  0  0  0  0
   38.1966   46.8441   14.8868 C   0  0  0  0  0  0  0  0  0  0  0  0
   29.9178   38.7571   20.1606 O   0  0  0  0  0  0  0  0  0  0  0  0
   35.8924   45.4361   15.5424 C   0  0  0  0  0  0  0  0  0  0  0  0
   30.1534   39.6213   19.1116 C   0  0  0  0  0  0  0  0  0  0  0  0
   34.8281   43.5232   16.7947 C   0  0  0  0  0  0  0  0  0  0  0  0
   37.2851   47.9952   14.6180 C   0  0  0  0  0  0  0  0  0  0  0  0
   39.2122   45.0182   18.2997 C   0  0  0  0  0  0  0  0  0  0  0  0
   34.7033   41.5649   19.0492 C   0  0  0  0  0  0  0  0  0  0  0  0
   38.6591   46.1936   13.6379 C   0  0  0  0  0  0  0  0  0  0  0  0
   34.6487   44.7866   16.0319 C   0  0  0  0  0  0  0  0  0  0  0  0
   28.0433   42.0762   18.9686 C   0  0  0  0  0  0  0  0  0  0  0  0
   38.1902   45.9745   16.0195 N   0  0  0  0  0  0  0  0  0  0  0  0
   35.6667   43.7015   17.9532 N   0  0  0  0  0  0  0  0  0  0  0  0
   33.6373   42.5855   17.0074 C   0  0  0  0  0  0  0  0  0  0  0  0
   29.9506   41.7042   17.8600 O   0  0  0  0  0  0  0  0  0  0  0  0
   37.9484   44.2833   18.6435 C   0  0  0  0  0  0  0  0  0  0  0  0
   35.0660   43.0672   19.1960 C   0  0  0  0  0  0  0  0  0  0  0  0
  1  3  2  3
  1  9  1  0
  2 20  1  0
  3  4  1  0
  3 13  1  0
  5 20  1  0
  5 24  1  0
  6  8  1  0
  6 12  1  0
  6 21  2  3
  7 13  1  0
  7 20  1  0
  7 24  1  0
  8 22  1  0
  8 25  1  0
  9 17  1  0
  9 23  1  0
 10 15  1  0
 10 18  1  0
 10 21  1  0
 11 13  1  0
 12 19  1  0
 14 19  1  0
 14 22  1  0
 14 23  1  0
 16 25  1  0
 17 26  1  0
 22 26  1  0
M  END
$$$$
