
     RDKit          3D

 26 29  0  0  0  0  0  0  0  0999 V2000
   -0.5505   -5.2790   17.6665 O   0  0  0  0  0  0  0  0  0  0  0  0
    1.8871   -3.5689   16.3651 O   0  0  0  0  0  0  0  0  0  0  0  0
    1.5297   -4.8103   14.1526 C   0  0  0  0  0  0  0  0  0  0  0  0
    3.7992   -3.8050   18.5433 O   0  0  0  0  0  0  0  0  0  0  0  0
    2.9265   -2.6687   15.8366 C   0  0  0  0  0  0  0  0  0  0  0  0
    1.9706   -2.8502   20.3715 C   0  0  0  0  0  0  0  0  0  0  0  0
    1.2715   -0.7074   21.6561 C   0  0  0  0  0  0  0  0  0  0  0  0
    0.9566   -3.8163   20.1358 O   0  0  0  0  0  0  0  0  0  0  0  0
    3.8116   -1.9971   16.8860 C   0  0  0  0  0  0  0  0  0  0  0  0
    3.3649   -2.4640   18.3292 C   0  0  0  0  0  0  0  0  0  0  0  0
    2.1034   -1.8559   19.1727 C   0  0  0  0  0  0  0  0  0  0  0  0
    0.7459    1.0852   20.1134 O   0  0  0  0  0  0  0  0  0  0  0  0
    1.0821   -4.2038   15.4111 C   0  0  0  0  0  0  0  0  0  0  0  0
    1.6585   -2.1466   21.6955 C   0  0  0  0  0  0  0  0  0  0  0  0
    0.2492   -5.0655   13.3331 C   0  0  0  0  0  0  0  0  0  0  0  0
    0.6604   -1.1819   19.1558 C   0  0  0  0  0  0  0  0  0  0  0  0
   -1.0533   -4.6869   16.5939 C   0  0  0  0  0  0  0  0  0  0  0  0
    5.2289   -2.3406   16.7500 O   0  0  0  0  0  0  0  0  0  0  0  0
    0.5303   -0.2618   20.4051 C   0  0  0  0  0  0  0  0  0  0  0  0
   -2.3704   -4.0671   16.6590 C   0  0  0  0  0  0  0  0  0  0  0  0
   -0.8631   -4.6937   14.1192 C   0  0  0  0  0  0  0  0  0  0  0  0
   -2.8142   -3.8126   15.2499 C   0  0  0  0  0  0  0  0  0  0  0  0
    4.3275   -1.3927   19.1808 C   0  0  0  0  0  0  0  0  0  0  0  0
   -0.3216   -4.3810   15.4491 N   0  0  0  0  0  0  0  0  0  0  0  0
   -2.2629   -4.7118   14.1975 C   0  0  0  0  0  0  0  0  0  0  0  0
    3.0601   -0.6810   19.6766 C   0  0  0  0  0  0  0  0  0  0  0  0
  1 17  2  0
  2  5  1  0
  2 13  1  0
  3 13  1  0
  3 15  1  0
  4 10  1  0
  5  9  1  0
  6  8  1  0
  6 11  1  0
  6 14  1  0
  7 14  1  0
  7 19  1  0
  9 10  1  0
  9 18  1  0
 10 11  1  0
 10 23  1  0
 11 16  1  0
 11 26  1  0
 12 19  1  0
 13 24  1  0
 15 21  1  0
 16 19  1  0
 17 20  1  0
 17 24  1  0
 20 22  1  0
 21 24  1  0
 21 25  1  0
 22 25  1  0
 23 26  1  0
M  END
$$$$
