
     RDKit          3D

 27 30  0  0  0  0  0  0  0  0999 V2000
   -1.5693   -4.0353   14.6045 C   0  0  0  0  0  0  0  0  0  0  0  0
    1.1034   -0.5535   22.0923 O   0  0  0  0  0  0  0  0  0  0  0  0
    4.5005   -1.7167   19.3865 O   0  0  0  0  0  0  0  0  0  0  0  0
   -3.0633   -3.9838   16.4599 C   0  0  0  0  0  0  0  0  0  0  0  0
   -3.7528   -4.7330   15.3284 C   0  0  0  0  0  0  0  0  0  0  0  0
    1.6895   -0.1836   21.0194 C   0  0  0  0  0  0  0  0  0  0  0  0
    2.8417   -2.4427   16.4472 C   0  0  0  0  0  0  0  0  0  0  0  0
    3.1753   -1.3099   18.8442 C   0  0  0  0  0  0  0  0  0  0  0  0
   -3.4345   -2.7647   16.7274 O   0  0  0  0  0  0  0  0  0  0  0  0
    2.3420   -3.4958   15.4380 C   0  0  0  0  0  0  0  0  0  0  0  0
    1.3742   -3.5120   20.9412 C   0  0  0  0  0  0  0  0  0  0  0  0
   -0.7955   -3.9459   17.4929 C   0  0  0  0  0  0  0  0  0  0  0  0
    2.6909   -2.4513   17.9429 C   0  0  0  0  0  0  0  0  0  0  0  0
    0.8899   -3.8415   15.7123 C   0  0  0  0  0  0  0  0  0  0  0  0
    1.6363    0.9699   20.5438 O   0  0  0  0  0  0  0  0  0  0  0  0
    1.3073   -2.9269   18.4018 C   0  0  0  0  0  0  0  0  0  0  0  0
    5.1958   -2.4575   16.7897 O   0  0  0  0  0  0  0  0  0  0  0  0
    0.7729   -3.9659   17.2777 C   0  0  0  0  0  0  0  0  0  0  0  0
    1.1338   -2.3548   19.8573 C   0  0  0  0  0  0  0  0  0  0  0  0
    1.3841   -5.1996   17.6545 O   0  0  0  0  0  0  0  0  0  0  0  0
    2.1915   -1.2670   20.0472 C   0  0  0  0  0  0  0  0  0  0  0  0
    0.5958   -5.1528   14.9063 C   0  0  0  0  0  0  0  0  0  0  0  0
   -1.5762   -4.2085   16.1547 C   0  0  0  0  0  0  0  0  0  0  0  0
    4.1970   -2.0047   15.9136 C   0  0  0  0  0  0  0  0  0  0  0  0
   -1.3105   -3.1469   18.7114 C   0  0  0  0  0  0  0  0  0  0  0  0
   -2.9276   -4.5635   14.1106 C   0  0  0  0  0  0  0  0  0  0  0  0
   -0.5388   -4.9075   13.9195 C   0  0  0  0  0  0  0  0  0  0  0  0
  1 23  1  0
  1 26  1  0
  1 27  1  0
  2  6  2  0
  3  8  1  0
  4  5  1  0
  4  9  1  0
  4 23  1  0
  5 26  1  0
  6 15  1  0
  6 21  1  0
  7 10  1  0
  7 13  1  0
  7 24  1  0
  8 13  1  0
  8 21  1  0
 10 14  1  0
 11 19  1  0
 12 18  1  0
 12 23  1  0
 12 25  1  0
 13 16  1  0
 14 18  1  0
 14 22  1  0
 16 18  1  0
 16 19  1  0
 17 24  1  0
 18 20  1  0
 19 21  1  0
 22 27  1  0
M  END
$$$$
