
     RDKit          3D

 14 13  0  0  0  0  0  0  0  0999 V2000
    2.5289   -3.2355   16.3850 C   0  0  0  0  0  0  0  0  0  0  0  0
    2.5356   -0.2436   20.2590 C   0  0  0  0  0  0  0  0  0  0  0  0
    1.9258   -4.8478   14.3137 C   0  0  0  0  0  0  0  0  0  0  0  0
    0.7398   -4.4835   15.0027 C   0  0  0  0  0  0  0  0  0  0  0  0
    3.3862   -2.0835   17.0064 C   0  0  0  0  0  0  0  0  0  0  0  0
    1.6629   -2.5212   18.8795 C   0  0  0  0  0  0  0  0  0  0  0  0
    0.7691   -1.5761   18.3169 O   0  0  0  0  0  0  0  0  0  0  0  0
    1.2920   -1.0574   21.3609 S   0  0  0  0  0  0  0  0  0  0  0  0
    3.2012   -2.2963   18.6532 C   0  0  0  0  0  0  0  0  0  0  0  0
    2.9570   -4.0537   14.0765 O   0  0  0  0  0  0  0  0  0  0  0  0
    4.8680   -2.2870   16.8342 O   0  0  0  0  0  0  0  0  0  0  0  0
    3.5502   -0.9131   19.2869 C   0  0  0  0  0  0  0  0  0  0  0  0
    3.8372   -3.6145   18.8373 O   0  0  0  0  0  0  0  0  0  0  0  0
    1.0121   -3.2670   15.9392 S   0  0  0  0  0  0  0  0  0  0  0  0
  1  5  1  0
  1 14  1  0
  2  8  1  0
  2 12  1  0
  3  4  1  0
  3 10  1  0
  4 14  1  0
  5  9  1  0
  5 11  1  0
  6  7  1  0
  6  9  1  0
  9 12  1  0
  9 13  1  0
M  END
$$$$
