
     RDKit          3D

 11 11  0  0  0  0  0  0  0  0999 V2000
  -18.2239   -6.3766    3.5751 C   0  0  0  0  0  0  0  0  0  0  0  0
  -19.7320   -7.1725    5.2962 C   0  0  0  0  0  0  0  0  0  0  0  0
  -14.7199   -5.9848    4.3294 C   0  0  0  0  0  0  0  0  0  0  0  0
  -16.1286   -6.1763    4.4486 C   0  0  0  0  0  0  0  0  0  0  0  0
  -12.3346   -6.6054    4.8855 C   0  0  0  0  0  0  0  0  0  0  0  0
  -13.7049   -6.0963    5.3515 C   0  0  0  0  0  0  0  0  0  0  0  0
  -11.6293   -6.9290    5.7096 O   0  0  0  0  0  0  0  0  0  0  0  0
  -12.1370   -6.8046    3.6903 O   0  0  0  0  0  0  0  0  0  0  0  0
  -16.9501   -6.4692    5.5445 C   0  0  0  0  0  0  0  0  0  0  0  0
  -18.3734   -6.7136    4.8903 N   0  0  0  0  0  0  0  0  0  0  0  0
  -16.9365   -6.0905    3.3222 C   0  0  0  0  0  0  0  0  0  0  0  0
  1 10  1  0
  1 11  1  0
  2 10  1  0
  3  4  2  3
  3  6  1  0
  4  9  1  0
  4 11  1  0
  5  6  1  0
  5  7  2  0
  5  8  1  0
  9 10  1  0
M  END
$$$$
