
     RDKit          3D

 17 18  0  0  0  0  0  0  0  0999 V2000
  -12.2197   -6.9888    6.2079 O   0  0  0  0  0  0  0  0  0  0  0  0
  -20.5944   -5.1282    4.0530 C   0  0  0  0  0  0  0  0  0  0  0  0
  -20.2954   -5.8982    2.9350 C   0  0  0  0  0  0  0  0  0  0  0  0
  -11.8051   -6.8629    3.0553 O   0  0  0  0  0  0  0  0  0  0  0  0
  -10.2501   -6.9496    4.7915 N   0  0  0  0  0  0  0  0  0  0  0  0
  -14.9826   -6.3917    5.4247 C   0  0  0  0  0  0  0  0  0  0  0  0
  -18.4773   -5.6731    4.9957 C   0  0  0  0  0  0  0  0  0  0  0  0
  -19.0663   -6.5170    2.8175 C   0  0  0  0  0  0  0  0  0  0  0  0
  -18.1150   -6.3450    3.8189 C   0  0  0  0  0  0  0  0  0  0  0  0
  -17.3531   -5.6958    5.7851 C   0  0  0  0  0  0  0  0  0  0  0  0
  -21.9569   -4.1251    4.0717 Cl  0  0  0  0  0  0  0  0  0  0  0  0
  -16.8188   -6.6765    3.8844 N   0  0  0  0  0  0  0  0  0  0  0  0
  -11.3980   -6.7424    4.1701 C   0  0  0  0  0  0  0  0  0  0  0  0
  -16.3488   -6.2935    5.0529 N   0  0  0  0  0  0  0  0  0  0  0  0
  -12.5693   -6.3977    5.1825 C   0  0  0  0  0  0  0  0  0  0  0  0
  -19.7071   -5.1217    5.1280 C   0  0  0  0  0  0  0  0  0  0  0  0
  -13.9186   -6.5227    4.5344 C   0  0  0  0  0  0  0  0  0  0  0  0
  1 15  1  0
  2  3  1  0
  2 11  1  0
  2 16  2  0
  3  8  2  0
  4 13  2  0
  5 13  1  0
  6 14  1  0
  6 17  1  0
  7  9  2  0
  7 10  1  0
  7 16  1  0
  8  9  1  0
  9 12  1  0
 10 14  1  0
 12 14  1  0
 13 15  1  0
 15 17  1  0
M  END
$$$$
