
     RDKit          3D

 13 13  0  0  0  0  0  0  0  0999 V2000
  -13.3323   -6.5921    4.3360 O   0  0  0  0  0  0  0  0  0  0  0  0
  -17.4810   -6.3951    3.5255 C   0  0  0  0  0  0  0  0  0  0  0  0
  -14.5388   -6.0427    4.0673 C   0  0  0  0  0  0  0  0  0  0  0  0
  -19.7395   -7.1418    3.6575 C   0  0  0  0  0  0  0  0  0  0  0  0
  -17.4754   -6.3320    4.9188 C   0  0  0  0  0  0  0  0  0  0  0  0
  -12.0432   -6.8777    6.0097 O   0  0  0  0  0  0  0  0  0  0  0  0
  -12.1137   -6.6536    4.8401 C   0  0  0  0  0  0  0  0  0  0  0  0
  -15.2075   -5.1990    5.0237 C   0  0  0  0  0  0  0  0  0  0  0  0
  -19.7094   -7.0485    5.0377 C   0  0  0  0  0  0  0  0  0  0  0  0
  -11.1633   -7.2059    3.8501 C   0  0  0  0  0  0  0  0  0  0  0  0
  -16.2700   -5.9563    5.6993 C   0  0  0  0  0  0  0  0  0  0  0  0
  -18.5952   -6.6153    5.6640 C   0  0  0  0  0  0  0  0  0  0  0  0
  -18.6430   -6.8112    2.8947 C   0  0  0  0  0  0  0  0  0  0  0  0
  1  3  1  0
  1  7  1  0
  2  5  1  0
  2 13  2  0
  3  8  1  0
  4  9  2  0
  4 13  1  0
  5 11  1  0
  5 12  2  0
  6  7  2  0
  7 10  1  0
  8 11  1  0
  9 12  1  0
M  END
$$$$
