
     RDKit          3D

 27 28  0  0  0  0  0  0  0  0999 V2000
  -19.2952   -6.0677    3.7352 C   0  0  0  0  0  0  0  0  0  0  0  0
  -21.3126   -5.6106    5.0092 C   0  0  0  0  0  0  0  0  0  0  0  0
  -23.8617   -4.9466    4.6312 C   0  0  0  0  0  0  0  0  0  0  0  0
  -20.7088   -6.3767    3.9185 C   0  0  0  0  0  0  0  0  0  0  0  0
  -17.0284   -7.1495    4.4184 C   0  0  0  0  0  0  0  0  0  0  0  0
  -10.7577   -7.6215    3.4651 N   0  0  0  0  0  0  0  0  0  0  0  0
  -24.0871   -4.7482    3.1913 C   0  0  0  0  0  0  0  0  0  0  0  0
   -9.8219   -7.2539    4.1065 C   0  0  0  0  0  0  0  0  0  0  0  0
  -11.2755   -1.4702   -1.5941 C   0  0  0  0  0  0  0  0  0  0  0  0
  -16.1046   -5.1540    4.9442 N   0  0  0  0  0  0  0  0  0  0  0  0
  -25.4725   -4.5892    2.8220 C   0  0  0  0  0  0  0  0  0  0  0  0
  -11.8500   -7.2011    3.6307 N   0  0  0  0  0  0  0  0  0  0  0  0
  -18.5655   -5.5858    4.8955 N   0  0  0  0  0  0  0  0  0  0  0  0
  -22.7693   -5.8229    5.1317 C   0  0  0  0  0  0  0  0  0  0  0  0
  -14.8814   -5.5766    4.5809 C   0  0  0  0  0  0  0  0  0  0  0  0
  -14.1002   -6.5039    5.3128 C   0  0  0  0  0  0  0  0  0  0  0  0
  -25.0579   -5.0640    5.2568 O   0  0  0  0  0  0  0  0  0  0  0  0
  -19.1538   -5.7976    6.1641 C   0  0  0  0  0  0  0  0  0  0  0  0
  -20.6020   -5.8142    6.2510 C   0  0  0  0  0  0  0  0  0  0  0  0
  -11.8130   -1.6957   -2.9376 O   0  0  0  0  0  0  0  0  0  0  0  0
  -25.9722   -4.0646    5.0381 C   0  0  0  0  0  0  0  0  0  0  0  0
  -10.6532   -6.8387    4.9176 N   0  0  0  0  0  0  0  0  0  0  0  0
  -25.9549   -3.5651    3.6939 C   0  0  0  0  0  0  0  0  0  0  0  0
  -17.1996   -5.9001    4.7710 C   0  0  0  0  0  0  0  0  0  0  0  0
  -12.0834   -2.4197   -0.7349 C   0  0  0  0  0  0  0  0  0  0  0  0
  -12.8158   -6.3528    5.6496 N   0  0  0  0  0  0  0  0  0  0  0  0
  -11.7460   -6.7029    4.8662 C   0  0  0  0  0  0  0  0  0  0  0  0
  1  4  1  0
  1 13  1  0
  2  4  1  0
  2 14  1  0
  2 19  1  0
  3  7  1  0
  3 14  1  0
  3 17  1  0
  5 24  2  0
  6  8  1  0
  6 12  1  0
  7 11  1  0
  8 22  1  0
  9 20  1  0
  9 25  1  0
 10 15  1  0
 10 24  1  0
 11 23  1  0
 12 27  1  0
 13 18  1  0
 13 24  1  0
 15 16  1  0
 16 26  1  0
 17 21  1  0
 18 19  2  0
 21 23  1  0
 22 27  2  0
 26 27  1  0
M  END
$$$$
