
     RDKit          3D

 12 12  0  0  0  0  0  0  0  0999 V2000
  -18.4760   -5.5632    5.5996 C   0  0  0  0  0  0  0  0  0  0  0  0
  -13.8979   -6.4884    4.4302 N   0  0  0  0  0  0  0  0  0  0  0  0
  -17.9810   -6.1821    3.3630 C   0  0  0  0  0  0  0  0  0  0  0  0
  -17.1556   -5.6612    5.9118 C   0  0  0  0  0  0  0  0  0  0  0  0
  -14.8044   -5.9616    5.2351 C   0  0  0  0  0  0  0  0  0  0  0  0
  -20.2025   -5.7128    3.9817 O   0  0  0  0  0  0  0  0  0  0  0  0
  -12.2544   -6.8789    5.9550 O   0  0  0  0  0  0  0  0  0  0  0  0
  -16.6490   -6.2457    3.6808 C   0  0  0  0  0  0  0  0  0  0  0  0
  -16.2039   -5.9823    4.9432 C   0  0  0  0  0  0  0  0  0  0  0  0
  -12.5674   -6.6890    4.7969 C   0  0  0  0  0  0  0  0  0  0  0  0
  -18.9051   -5.8156    4.3077 C   0  0  0  0  0  0  0  0  0  0  0  0
  -11.7338   -6.8587    3.8176 O   0  0  0  0  0  0  0  0  0  0  0  0
  1  4  2  0
  1 11  1  0
  2  5  2  3
  2 10  1  0
  3  8  1  0
  3 11  2  0
  4  9  1  0
  5  9  1  0
  6 11  1  0
  7 10  2  0
  8  9  2  0
 10 12  1  0
M  END
$$$$
