
     RDKit          3D

 27 30  0  0  0  0  0  0  0  0999 V2000
  -18.1620   -5.7348    4.8879 C   0  0  0  0  0  0  0  0  0  0  0  0
  -12.7039   -6.7389    4.0244 N   0  0  0  0  0  0  0  0  0  0  0  0
  -19.8463   -7.3638    1.2549 O   0  0  0  0  0  0  0  0  0  0  0  0
  -23.3121   -8.8635    2.8871 C   0  0  0  0  0  0  0  0  0  0  0  0
  -16.4564   -7.0235    4.3015 N   0  0  0  0  0  0  0  0  0  0  0  0
  -24.6163   -6.5570    0.6403 O   0  0  0  0  0  0  0  0  0  0  0  0
  -14.5906   -5.7733    5.2901 C   0  0  0  0  0  0  0  0  0  0  0  0
  -24.5122   -7.6523    1.3829 C   0  0  0  0  0  0  0  0  0  0  0  0
  -19.7831   -4.3021    5.6512 N   0  0  0  0  0  0  0  0  0  0  0  0
  -23.1619   -8.0573    1.6624 C   0  0  0  0  0  0  0  0  0  0  0  0
  -13.3172   -6.3056    5.0487 C   0  0  0  0  0  0  0  0  0  0  0  0
  -25.3947   -8.3677    2.0699 O   0  0  0  0  0  0  0  0  0  0  0  0
  -24.7018   -9.0950    3.0854 C   0  0  0  0  0  0  0  0  0  0  0  0
  -15.9097   -6.0374    4.9667 C   0  0  0  0  0  0  0  0  0  0  0  0
  -18.9373   -7.8171    3.8063 C   0  0  0  0  0  0  0  0  0  0  0  0
  -22.1805   -9.5323    3.6215 C   0  0  0  0  0  0  0  0  0  0  0  0
  -11.1573   -6.5719    5.2021 N   0  0  0  0  0  0  0  0  0  0  0  0
  -16.9308   -5.2668    5.3326 C   0  0  0  0  0  0  0  0  0  0  0  0
  -23.7963   -6.6138   -0.5312 C   0  0  0  0  0  0  0  0  0  0  0  0
  -20.4888   -6.0001    4.2919 N   0  0  0  0  0  0  0  0  0  0  0  0
  -12.2163   -6.1549    5.8265 N   0  0  0  0  0  0  0  0  0  0  0  0
  -20.2578   -7.1840    3.5814 C   0  0  0  0  0  0  0  0  0  0  0  0
  -19.5028   -5.3052    4.9766 C   0  0  0  0  0  0  0  0  0  0  0  0
  -20.8294   -7.3577    2.2251 C   0  0  0  0  0  0  0  0  0  0  0  0
  -11.4897   -6.9419    4.0115 N   0  0  0  0  0  0  0  0  0  0  0  0
  -17.8658   -6.9334    4.2559 C   0  0  0  0  0  0  0  0  0  0  0  0
  -22.1660   -6.9137    1.8030 C   0  0  0  0  0  0  0  0  0  0  0  0
  1 18  1  0
  1 23  1  0
  1 26  2  0
  2 11  2  0
  2 25  1  0
  3 24  1  0
  4 10  1  0
  4 13  1  0
  4 16  1  0
  5 14  1  0
  5 26  1  0
  6  8  1  0
  6 19  1  0
  7 11  1  0
  7 14  2  3
  8 10  1  0
  8 12  1  0
  9 23  2  0
 10 27  1  0
 11 21  1  0
 12 13  1  0
 14 18  1  0
 15 22  1  0
 15 26  1  0
 17 21  1  0
 17 25  1  0
 20 22  1  0
 20 23  1  0
 22 24  1  0
 24 27  1  0
M  END
$$$$
