
     RDKit          3D

 14 14  0  0  0  0  0  0  0  0999 V2000
  -12.0766   -6.4814    5.2576 C   0  0  0  0  0  0  0  0  0  0  0  0
  -11.0964   -6.2388    5.1634 O   0  0  0  0  0  0  0  0  0  0  0  0
  -17.3073   -6.5368    3.6160 C   0  0  0  0  0  0  0  0  0  0  0  0
  -12.7406   -6.7756    4.0886 C   0  0  0  0  0  0  0  0  0  0  0  0
  -15.8102   -5.2055    5.0949 C   0  0  0  0  0  0  0  0  0  0  0  0
  -19.1600   -6.7366    5.6573 C   0  0  0  0  0  0  0  0  0  0  0  0
  -18.4916   -7.2181    3.4257 C   0  0  0  0  0  0  0  0  0  0  0  0
  -17.0567   -5.9855    4.8554 C   0  0  0  0  0  0  0  0  0  0  0  0
  -14.1110   -6.3025    4.1768 N   0  0  0  0  0  0  0  0  0  0  0  0
  -17.9839   -6.0872    5.8844 C   0  0  0  0  0  0  0  0  0  0  0  0
  -14.5176   -5.7067    5.2443 C   0  0  0  0  0  0  0  0  0  0  0  0
  -12.3986   -7.0217    6.1972 O   0  0  0  0  0  0  0  0  0  0  0  0
  -11.8864   -7.0195    3.0992 O   0  0  0  0  0  0  0  0  0  0  0  0
  -19.3899   -7.3344    4.4646 C   0  0  0  0  0  0  0  0  0  0  0  0
  1  2  2  0
  1  4  1  0
  1 12  1  0
  3  7  2  0
  3  8  1  0
  4  9  1  0
  4 13  2  0
  5  8  1  0
  5 11  1  0
  6 10  1  0
  6 14  2  0
  7 14  1  0
  8 10  2  0
  9 11  1  0
M  END
$$$$
