
     RDKit          3D

 15 15  0  0  0  0  0  0  0  0999 V2000
  -12.0653   -6.8664    3.5613 N   0  0  0  0  0  0  0  0  0  0  0  0
  -17.7964   -5.8675    4.2992 C   0  0  0  0  0  0  0  0  0  0  0  0
  -20.1793   -7.2977    4.1041 C   0  0  0  0  0  0  0  0  0  0  0  0
  -11.9957   -6.6272    4.8373 C   0  0  0  0  0  0  0  0  0  0  0  0
  -15.3339   -6.2198    4.8461 C   0  0  0  0  0  0  0  0  0  0  0  0
  -13.0192   -6.1481    5.4917 N   0  0  0  0  0  0  0  0  0  0  0  0
  -15.2165   -7.4896    5.0606 O   0  0  0  0  0  0  0  0  0  0  0  0
  -20.2114   -5.9041    4.1621 C   0  0  0  0  0  0  0  0  0  0  0  0
  -17.8390   -7.2173    4.2165 C   0  0  0  0  0  0  0  0  0  0  0  0
  -16.4491   -5.2399    4.4550 C   0  0  0  0  0  0  0  0  0  0  0  0
  -18.9810   -7.9370    4.0919 C   0  0  0  0  0  0  0  0  0  0  0  0
  -14.1439   -5.5455    5.2387 C   0  0  0  0  0  0  0  0  0  0  0  0
  -19.0216   -5.1719    4.2503 C   0  0  0  0  0  0  0  0  0  0  0  0
  -21.5580   -8.2167    4.0064 Cl  0  0  0  0  0  0  0  0  0  0  0  0
  -10.9033   -6.7846    5.1962 O   0  0  0  0  0  0  0  0  0  0  0  0
  1  4  1  0
  2  9  2  0
  2 10  1  0
  2 13  1  0
  3  8  1  0
  3 11  2  0
  3 14  1  0
  4  6  1  0
  4 15  2  0
  5  7  1  0
  5 10  1  0
  5 12  2  3
  6 12  1  0
  8 13  2  0
  9 11  1  0
M  END
$$$$
