
     RDKit          3D

 12 12  0  0  0  0  0  0  0  0999 V2000
  -18.5156   -7.1155    4.5511 C   0  0  0  0  0  0  0  0  0  0  0  0
  -17.1550   -6.9541    4.5633 C   0  0  0  0  0  0  0  0  0  0  0  0
  -13.0509   -6.4269    5.3935 C   0  0  0  0  0  0  0  0  0  0  0  0
  -19.3298   -5.9838    4.4029 C   0  0  0  0  0  0  0  0  0  0  0  0
  -18.7389   -4.7248    4.2884 C   0  0  0  0  0  0  0  0  0  0  0  0
  -17.3948   -4.6115    4.3305 C   0  0  0  0  0  0  0  0  0  0  0  0
  -15.1178   -5.5449    4.4190 C   0  0  0  0  0  0  0  0  0  0  0  0
  -16.5577   -5.7177    4.4325 C   0  0  0  0  0  0  0  0  0  0  0  0
  -11.8240   -6.7391    4.6547 C   0  0  0  0  0  0  0  0  0  0  0  0
  -10.7529   -6.8157    5.0948 O   0  0  0  0  0  0  0  0  0  0  0  0
  -14.2043   -6.5808    4.6039 N   0  0  0  0  0  0  0  0  0  0  0  0
  -11.8909   -6.8566    3.3878 O   0  0  0  0  0  0  0  0  0  0  0  0
  1  2  2  0
  1  4  1  0
  2  8  1  0
  3  9  1  0
  3 11  1  0
  4  5  1  0
  5  6  2  0
  6  8  1  0
  7  8  2  3
  7 11  1  0
  9 10  2  0
  9 12  1  0
M  END
$$$$
