
     RDKit          3D

 14 14  0  0  0  0  0  0  0  0999 V2000
  -10.5934   -7.4520    4.1093 O   0  0  0  0  0  0  0  0  0  0  0  0
  -12.0588   -6.6108    2.8161 O   0  0  0  0  0  0  0  0  0  0  0  0
  -18.2846   -6.7298    3.5019 C   0  0  0  0  0  0  0  0  0  0  0  0
  -19.3959   -6.6792    5.6880 C   0  0  0  0  0  0  0  0  0  0  0  0
  -17.0355   -6.2999    3.6596 C   0  0  0  0  0  0  0  0  0  0  0  0
  -17.1285   -5.9117    6.0068 C   0  0  0  0  0  0  0  0  0  0  0  0
  -16.4034   -5.9559    4.8419 C   0  0  0  0  0  0  0  0  0  0  0  0
  -13.9546   -6.6360    4.7990 C   0  0  0  0  0  0  0  0  0  0  0  0
  -14.9589   -5.6034    4.8596 C   0  0  0  0  0  0  0  0  0  0  0  0
  -18.3131   -6.1733    6.3868 C   0  0  0  0  0  0  0  0  0  0  0  0
  -19.3154   -6.9379    4.3397 C   0  0  0  0  0  0  0  0  0  0  0  0
  -12.0996   -6.9518    6.1019 N   0  0  0  0  0  0  0  0  0  0  0  0
  -12.4970   -6.3613    5.0532 C   0  0  0  0  0  0  0  0  0  0  0  0
  -11.5937   -6.8507    3.8628 C   0  0  0  0  0  0  0  0  0  0  0  0
  1 14  2  0
  2 14  1  0
  3  5  2  0
  3 11  1  0
  4 10  1  0
  4 11  2  0
  5  7  1  0
  6  7  1  0
  6 10  2  0
  7  9  1  0
  8  9  2  3
  8 13  1  0
 12 13  1  0
 13 14  1  0
M  END
$$$$
