
     RDKit          3D

  9  8  0  0  0  0  0  0  0  0999 V2000
  -14.8790   -6.4116    5.1315 C   0  0  0  0  0  0  0  0  0  0  0  0
  -18.4075   -5.9297    3.8472 C   0  0  0  0  0  0  0  0  0  0  0  0
  -13.7287   -6.3009    4.3893 C   0  0  0  0  0  0  0  0  0  0  0  0
  -17.6480   -6.0589    6.2987 C   0  0  0  0  0  0  0  0  0  0  0  0
  -12.4102   -6.6736    4.8866 C   0  0  0  0  0  0  0  0  0  0  0  0
  -16.0767   -5.6182    4.4590 C   0  0  0  0  0  0  0  0  0  0  0  0
  -17.3785   -6.4336    4.8281 C   0  0  0  0  0  0  0  0  0  0  0  0
  -11.5981   -7.0658    3.9590 O   0  0  0  0  0  0  0  0  0  0  0  0
  -12.2435   -6.8718    6.0509 O   0  0  0  0  0  0  0  0  0  0  0  0
  1  3  1  0
  1  6  1  0
  2  7  1  0
  3  5  1  0
  4  7  1  0
  5  8  2  0
  5  9  1  0
  6  7  1  0
M  END
$$$$
