
     RDKit          3D

 13 13  0  0  0  0  0  0  0  0999 V2000
  -10.5628   -6.7972    4.1202 C   0  0  0  0  0  0  0  0  0  0  0  0
  -19.8840   -4.8615    4.1945 C   0  0  0  0  0  0  0  0  0  0  0  0
  -13.9499   -6.5947    4.5963 N   0  0  0  0  0  0  0  0  0  0  0  0
  -16.9644   -7.0634    4.7109 C   0  0  0  0  0  0  0  0  0  0  0  0
  -17.3089   -4.8504    4.4466 N   0  0  0  0  0  0  0  0  0  0  0  0
  -14.9078   -5.6213    4.7667 C   0  0  0  0  0  0  0  0  0  0  0  0
  -10.5894   -7.7975    3.6109 N   0  0  0  0  0  0  0  0  0  0  0  0
  -18.3614   -6.8442    4.5809 C   0  0  0  0  0  0  0  0  0  0  0  0
  -11.6706   -6.4040    4.2317 N   0  0  0  0  0  0  0  0  0  0  0  0
  -12.3458   -6.9548    6.1202 O   0  0  0  0  0  0  0  0  0  0  0  0
  -12.6677   -6.5663    5.0697 C   0  0  0  0  0  0  0  0  0  0  0  0
  -18.5803   -5.4644    4.4039 C   0  0  0  0  0  0  0  0  0  0  0  0
  -16.3138   -5.8641    4.6430 C   0  0  0  0  0  0  0  0  0  0  0  0
  1  7  1  0
  1  9  1  0
  2 12  1  0
  3  6  1  0
  3 11  1  0
  4  8  1  0
  4 13  1  0
  5 12  1  0
  5 13  1  0
  6 13  1  0
  8 12  1  0
  9 11  1  0
 10 11  2  0
M  END
$$$$
