
     RDKit          3D

 12 12  0  0  0  0  0  0  0  0999 V2000
   -7.1887    3.2641  -30.7818 C   0  0  0  0  0  0  0  0  0  0  0  0
  -10.1735    4.2787  -28.9184 C   0  0  0  0  0  0  0  0  0  0  0  0
   -5.9724    2.1504  -32.2019 O   0  0  0  0  0  0  0  0  0  0  0  0
   -9.5680    5.2305  -28.0670 C   0  0  0  0  0  0  0  0  0  0  0  0
   -7.1241    2.2621  -31.8115 C   0  0  0  0  0  0  0  0  0  0  0  0
   -7.6511    4.9436  -29.1639 C   0  0  0  0  0  0  0  0  0  0  0  0
   -7.8511    6.8266  -27.6513 O   0  0  0  0  0  0  0  0  0  0  0  0
   -9.4145    3.7374  -29.8976 C   0  0  0  0  0  0  0  0  0  0  0  0
   -7.9580    1.4166  -32.2869 O   0  0  0  0  0  0  0  0  0  0  0  0
   -8.3283    5.6869  -28.2867 C   0  0  0  0  0  0  0  0  0  0  0  0
   -8.0419    3.9827  -29.9548 C   0  0  0  0  0  0  0  0  0  0  0  0
  -10.0665    3.0218  -30.8551 O   0  0  0  0  0  0  0  0  0  0  0  0
  1  5  1  0
  1 11  1  0
  2  4  2  0
  2  8  1  0
  3  5  2  0
  4 10  1  0
  5  9  1  0
  6 10  2  0
  6 11  1  0
  7 10  1  0
  8 11  2  0
  8 12  1  0
M  END
$$$$
