
     RDKit          3D

 20 21  0  0  0  0  0  0  0  0999 V2000
   -8.9807    5.3803  -28.3820 C   0  0  0  0  0  0  0  0  0  0  0  0
  -10.3602    4.0338  -30.4573 C   0  0  0  0  0  0  0  0  0  0  0  0
  -10.8651    4.9730  -27.1294 N   0  0  0  0  0  0  0  0  0  0  0  0
  -10.0991    4.4700  -28.0679 C   0  0  0  0  0  0  0  0  0  0  0  0
  -11.8229    4.3490  -30.3749 O   0  0  0  0  0  0  0  0  0  0  0  0
   -7.3456    1.8581  -31.8792 P   0  0  0  0  0  0  0  0  0  0  0  0
   -5.7972    2.1746  -32.3537 O   0  0  0  0  0  0  0  0  0  0  0  0
  -10.1653    3.4353  -29.0617 C   0  0  0  0  0  0  0  0  0  0  0  0
   -8.1231    5.0368  -31.2736 C   0  0  0  0  0  0  0  0  0  0  0  0
   -8.1744    5.0235  -29.6582 C   0  0  0  0  0  0  0  0  0  0  0  0
  -10.0580    6.1165  -26.6362 N   0  0  0  0  0  0  0  0  0  0  0  0
   -7.3798    3.9794  -33.3069 O   0  0  0  0  0  0  0  0  0  0  0  0
   -8.9248    6.1464  -31.5898 O   0  0  0  0  0  0  0  0  0  0  0  0
   -8.1224    3.6887  -32.0353 C   0  0  0  0  0  0  0  0  0  0  0  0
   -8.2866    0.6992  -33.1063 O   0  0  0  0  0  0  0  0  0  0  0  0
   -9.6281    3.1969  -31.5535 C   0  0  0  0  0  0  0  0  0  0  0  0
   -7.0668    0.7183  -30.9846 O   0  0  0  0  0  0  0  0  0  0  0  0
   -7.1508    4.0117  -29.2846 Cl  0  0  0  0  0  0  0  0  0  0  0  0
   -8.9094    6.3431  -27.3965 C   0  0  0  0  0  0  0  0  0  0  0  0
   -8.1348    7.2978  -27.3397 N   0  0  0  0  0  0  0  0  0  0  0  0
  1  4  2  0
  1 10  1  0
  1 19  1  0
  2  5  1  0
  2  8  1  0
  2 16  1  0
  3  4  1  0
  3 11  1  0
  4  8  1  0
  6  7  1  0
  6 14  1  0
  6 15  1  0
  6 17  1  0
  9 10  1  0
  9 13  1  0
  9 14  1  0
 10 18  1  0
 11 19  1  0
 12 14  1  0
 14 16  1  0
 19 20  2  0
M  END
$$$$
