
     RDKit          3D

 17 17  0  0  0  0  0  0  0  0999 V2000
   -7.8835    5.5726  -28.6833 C   0  0  0  0  0  0  0  0  0  0  0  0
   -8.4985    5.7868  -31.1229 O   0  0  0  0  0  0  0  0  0  0  0  0
   -9.5155    2.8639  -31.7143 C   0  0  0  0  0  0  0  0  0  0  0  0
   -6.1938    3.9350  -30.4974 O   0  0  0  0  0  0  0  0  0  0  0  0
   -5.9494    2.1577  -32.2063 O   0  0  0  0  0  0  0  0  0  0  0  0
   -8.0989    2.6125  -31.1998 C   0  0  0  0  0  0  0  0  0  0  0  0
   -9.6431    3.9551  -29.2032 C   0  0  0  0  0  0  0  0  0  0  0  0
   -9.5881    2.0328  -32.9924 O   0  0  0  0  0  0  0  0  0  0  0  0
  -11.0459    3.4016  -29.4869 O   0  0  0  0  0  0  0  0  0  0  0  0
   -8.9268    6.8748  -26.9565 O   0  0  0  0  0  0  0  0  0  0  0  0
  -11.0696    4.9308  -27.0886 O   0  0  0  0  0  0  0  0  0  0  0  0
   -7.1505    2.4542  -32.3353 C   0  0  0  0  0  0  0  0  0  0  0  0
   -7.3201    3.1916  -33.3284 O   0  0  0  0  0  0  0  0  0  0  0  0
   -8.9565    5.7670  -27.7620 C   0  0  0  0  0  0  0  0  0  0  0  0
   -8.4721    4.8035  -29.9060 C   0  0  0  0  0  0  0  0  0  0  0  0
   -9.9049    4.5269  -27.7476 C   0  0  0  0  0  0  0  0  0  0  0  0
   -7.4669    3.7024  -30.3494 C   0  0  0  0  0  0  0  0  0  0  0  0
  1 14  1  0
  1 15  1  0
  2 15  1  0
  3  6  1  0
  3  8  1  0
  4 17  1  0
  5 12  2  0
  6 12  1  0
  6 17  1  0
  7  9  1  0
  7 15  1  0
  7 16  1  0
 10 14  1  0
 11 16  1  0
 12 13  1  0
 14 16  1  0
 15 17  1  0
M  END
$$$$
