
     RDKit          3D

 13 12  0  0  0  0  0  0  0  0999 V2000
   -7.3607    3.5705  -33.4083 O   0  0  0  0  0  0  0  0  0  0  0  0
   -6.1511    2.2173  -32.1003 O   0  0  0  0  0  0  0  0  0  0  0  0
   -8.4819    1.4546  -32.4196 O   0  0  0  0  0  0  0  0  0  0  0  0
   -8.9769    4.8861  -28.9240 C   0  0  0  0  0  0  0  0  0  0  0  0
   -7.9685    5.8461  -28.4577 C   0  0  0  0  0  0  0  0  0  0  0  0
   -8.2750    5.2809  -31.4786 O   0  0  0  0  0  0  0  0  0  0  0  0
   -7.6344    2.7108  -32.1612 P   0  0  0  0  0  0  0  0  0  0  0  0
   -9.9258    4.4419  -27.7938 C   0  0  0  0  0  0  0  0  0  0  0  0
  -10.7307    3.3465  -28.3908 O   0  0  0  0  0  0  0  0  0  0  0  0
   -7.1525    3.4527  -29.3363 O   0  0  0  0  0  0  0  0  0  0  0  0
   -8.4758    3.6348  -29.6890 C   0  0  0  0  0  0  0  0  0  0  0  0
   -8.6021    3.8880  -31.2162 C   0  0  0  0  0  0  0  0  0  0  0  0
   -8.2469    7.1412  -28.0346 O   0  0  0  0  0  0  0  0  0  0  0  0
  1  7  1  0
  2  7  1  0
  3  7  1  0
  4  5  1  0
  4  8  1  0
  4 11  1  0
  5 13  1  0
  6 12  1  0
  7 12  1  0
  8  9  1  0
 10 11  1  0
 11 12  1  0
M  END
$$$$
