
     RDKit          3D

 12 12  0  0  0  0  0  0  0  0999 V2000
  -10.5037    4.5763  -27.6437 N   0  0  0  0  0  0  0  0  0  0  0  0
   -8.0502    1.4552  -32.3983 O   0  0  0  0  0  0  0  0  0  0  0  0
   -7.6973    3.0747  -30.8859 C   0  0  0  0  0  0  0  0  0  0  0  0
   -8.6584    4.0016  -31.5613 C   0  0  0  0  0  0  0  0  0  0  0  0
   -9.1137    6.3600  -31.5261 O   0  0  0  0  0  0  0  0  0  0  0  0
   -8.9115    5.2308  -30.7417 C   0  0  0  0  0  0  0  0  0  0  0  0
   -8.1477    6.1796  -28.6240 O   0  0  0  0  0  0  0  0  0  0  0  0
   -8.4934    4.9199  -29.2849 C   0  0  0  0  0  0  0  0  0  0  0  0
   -7.3622    3.6775  -29.5849 C   0  0  0  0  0  0  0  0  0  0  0  0
   -7.1931    2.1172  -31.8592 C   0  0  0  0  0  0  0  0  0  0  0  0
   -9.3029    4.1405  -28.1906 C   0  0  0  0  0  0  0  0  0  0  0  0
   -5.9963    2.1765  -32.1670 O   0  0  0  0  0  0  0  0  0  0  0  0
  1 11  1  0
  2 10  2  0
  3  4  1  0
  3  9  1  0
  3 10  1  0
  4  6  1  0
  5  6  1  0
  6  8  1  0
  7  8  1  0
  8  9  1  0
  8 11  1  0
 10 12  1  0
M  END
$$$$
