
     RDKit          3D

 28 28  0  0  0  0  0  0  0  0999 V2000
   32.4057   33.4501  102.8086 N   0  0  0  0  0  0  0  0  0  0  0  0
   28.3211   36.1789  103.0084 C   0  0  0  0  0  0  0  0  0  0  0  0
   23.5782   32.6068  106.3701 C   0  0  0  0  0  0  0  0  0  0  0  0
   26.2261   35.3773  102.0798 C   0  0  0  0  0  0  0  0  0  0  0  0
   24.6457   33.9938  108.0132 C   0  0  0  0  0  0  0  0  0  0  0  0
   27.3000   35.1841  103.0173 C   0  0  0  0  0  0  0  0  0  0  0  0
   29.2058   34.0387  104.3644 O   0  0  0  0  0  0  0  0  0  0  0  0
   31.5453   33.9178  104.9189 C   0  0  0  0  0  0  0  0  0  0  0  0
   24.5799   33.0190  104.3002 C   0  0  0  0  0  0  0  0  0  0  0  0
   29.4417   35.0431  105.3819 C   0  0  0  0  0  0  0  0  0  0  0  0
   24.7685   36.5262  100.5918 C   0  0  0  0  0  0  0  0  0  0  0  0
   24.7490   33.0434  105.6941 O   0  0  0  0  0  0  0  0  0  0  0  0
   26.9238   34.1433  103.8443 N   0  0  0  0  0  0  0  0  0  0  0  0
   31.3434   34.1383  103.4311 C   0  0  0  0  0  0  0  0  0  0  0  0
   23.3010   33.7958  107.3320 C   0  0  0  0  0  0  0  0  0  0  0  0
   25.5420   33.8918  103.5757 C   0  0  0  0  0  0  0  0  0  0  0  0
   32.8837   33.9476  105.1872 O   0  0  0  0  0  0  0  0  0  0  0  0
   29.9078   33.8292  103.2185 C   0  0  0  0  0  0  0  0  0  0  0  0
   30.8854   35.2184  105.6330 C   0  0  0  0  0  0  0  0  0  0  0  0
   23.7085   35.9118   99.8431 C   0  0  0  0  0  0  0  0  0  0  0  0
   25.1384   34.6550  102.4960 C   0  0  0  0  0  0  0  0  0  0  0  0
   32.7691   33.8469  101.5283 O   0  0  0  0  0  0  0  0  0  0  0  0
   29.6499   32.9566  102.3418 O   0  0  0  0  0  0  0  0  0  0  0  0
   29.2260   36.8650  103.5069 O   0  0  0  0  0  0  0  0  0  0  0  0
   31.6133   36.2740  105.2784 O   0  0  0  0  0  0  0  0  0  0  0  0
   24.4452   37.3769  101.4543 O   0  0  0  0  0  0  0  0  0  0  0  0
   26.0078   33.7912  107.6785 O   0  0  0  0  0  0  0  0  0  0  0  0
   26.2319   36.0097  100.7797 C   0  0  0  0  0  0  0  0  0  0  0  0
  1 14  1  0
  1 22  1  0
  2  6  1  0
  2 24  2  0
  3 12  1  0
  3 15  1  0
  4  6  1  0
  4 21  1  0
  4 28  1  0
  5 15  1  0
  5 27  1  0
  6 13  1  0
  7 10  1  0
  7 18  1  0
  8 14  1  0
  8 17  1  0
  8 19  1  0
  9 12  1  0
  9 16  1  0
 10 19  1  0
 11 20  1  0
 11 26  2  0
 11 28  1  0
 13 16  1  0
 14 18  1  0
 16 21  1  0
 18 23  2  0
 19 25  1  0
M  END
$$$$
