
     RDKit          3D

 28 30  0  0  0  0  0  0  0  0999 V2000
   30.5362   35.7793  103.8669 C   0  0  0  0  0  0  0  0  0  0  0  0
   31.7843   33.6417  104.2983 C   0  0  0  0  0  0  0  0  0  0  0  0
   26.6686   36.4129  100.8938 C   0  0  0  0  0  0  0  0  0  0  0  0
   24.2266   36.1251  100.3441 C   0  0  0  0  0  0  0  0  0  0  0  0
   30.4795   36.9747  103.6490 O   0  0  0  0  0  0  0  0  0  0  0  0
   23.2543   31.3696  103.7647 O   0  0  0  0  0  0  0  0  0  0  0  0
   26.2139   34.7129  104.0795 N   0  0  0  0  0  0  0  0  0  0  0  0
   29.6234   33.6221  103.2236 C   0  0  0  0  0  0  0  0  0  0  0  0
   31.5815   35.0794  104.5290 C   0  0  0  0  0  0  0  0  0  0  0  0
   28.2908   35.9161  103.7007 C   0  0  0  0  0  0  0  0  0  0  0  0
   25.1056   34.2980  103.3469 C   0  0  0  0  0  0  0  0  0  0  0  0
   31.0796   33.3580  103.0027 C   0  0  0  0  0  0  0  0  0  0  0  0
   24.6717   33.6918  107.8038 C   0  0  0  0  0  0  0  0  0  0  0  0
   26.2588   35.7792  102.0735 C   0  0  0  0  0  0  0  0  0  0  0  0
   25.0281   35.1128  102.1821 C   0  0  0  0  0  0  0  0  0  0  0  0
   24.8017   33.7794  106.3460 C   0  0  0  0  0  0  0  0  0  0  0  0
   25.6431   36.2905   99.8861 C   0  0  0  0  0  0  0  0  0  0  0  0
   24.0952   32.2310  104.2994 C   0  0  0  0  0  0  0  0  0  0  0  0
   24.3843   33.2313  103.4668 N   0  0  0  0  0  0  0  0  0  0  0  0
   31.9056   33.8025  101.9254 N   0  0  0  0  0  0  0  0  0  0  0  0
   24.6714   34.4619  108.7197 O   0  0  0  0  0  0  0  0  0  0  0  0
   23.9919   35.3238  101.4284 O   0  0  0  0  0  0  0  0  0  0  0  0
   23.9826   32.5727  105.7695 C   0  0  0  0  0  0  0  0  0  0  0  0
   31.1501   34.0541  105.3789 C   0  0  0  0  0  0  0  0  0  0  0  0
   23.2423   36.6213   99.5593 F   0  0  0  0  0  0  0  0  0  0  0  0
   25.2378   35.1561  106.3899 N   0  0  0  0  0  0  0  0  0  0  0  0
   29.4201   35.0019  103.7164 N   0  0  0  0  0  0  0  0  0  0  0  0
   26.9851   35.5416  103.2987 C   0  0  0  0  0  0  0  0  0  0  0  0
  1  5  2  0
  1  9  1  0
  1 27  1  0
  2 12  1  0
  2 24  1  0
  3 14  1  0
  3 17  1  0
  4 17  1  0
  4 22  1  0
  4 25  1  0
  6 18  2  0
  7 11  2  0
  7 28  1  0
  8 12  1  0
  8 27  1  0
  9 24  1  0
 10 27  1  0
 10 28  1  0
 11 15  1  0
 11 19  1  0
 12 20  1  0
 13 16  1  0
 13 21  2  0
 14 15  1  0
 14 28  2  0
 15 22  1  0
 16 23  1  0
 16 26  1  0
 18 19  1  0
 18 23  1  0
M  END
$$$$
