
     RDKit          3D

 25 27  0  0  0  0  0  0  0  0999 V2000
   26.8939   34.8020  107.5428 O   0  0  0  0  0  0  0  0  0  0  0  0
   30.7496   36.6493  103.7087 O   0  0  0  0  0  0  0  0  0  0  0  0
   24.4781   33.5148  106.4729 C   0  0  0  0  0  0  0  0  0  0  0  0
   32.5721   34.3450  105.0475 O   0  0  0  0  0  0  0  0  0  0  0  0
   25.1893   34.1282  104.2647 C   0  0  0  0  0  0  0  0  0  0  0  0
   30.1262   34.6221  104.7437 C   0  0  0  0  0  0  0  0  0  0  0  0
   29.7934   35.7664  103.8017 C   0  0  0  0  0  0  0  0  0  0  0  0
   31.4563   33.3877  103.0597 C   0  0  0  0  0  0  0  0  0  0  0  0
   31.4405   33.9546  104.4056 C   0  0  0  0  0  0  0  0  0  0  0  0
   25.9861   35.0712  103.4086 C   0  0  0  0  0  0  0  0  0  0  0  0
   23.3500   32.5910  104.5290 C   0  0  0  0  0  0  0  0  0  0  0  0
   25.9281   37.2530  101.1997 O   0  0  0  0  0  0  0  0  0  0  0  0
   27.7897   35.1485  105.2585 C   0  0  0  0  0  0  0  0  0  0  0  0
   24.2131   33.2995  103.7248 C   0  0  0  0  0  0  0  0  0  0  0  0
   24.1713   36.2398  100.2470 N   0  0  0  0  0  0  0  0  0  0  0  0
   25.1788   36.2890  101.1587 C   0  0  0  0  0  0  0  0  0  0  0  0
   28.7790   33.9491  105.0882 C   0  0  0  0  0  0  0  0  0  0  0  0
   27.3126   35.5173  103.8385 C   0  0  0  0  0  0  0  0  0  0  0  0
   25.4118   34.1518  105.6573 C   0  0  0  0  0  0  0  0  0  0  0  0
   26.6908   34.8642  106.2009 C   0  0  0  0  0  0  0  0  0  0  0  0
   28.5395   35.9983  103.1130 C   0  0  0  0  0  0  0  0  0  0  0  0
   32.2498   33.8853  102.1139 O   0  0  0  0  0  0  0  0  0  0  0  0
   30.3975   32.6317  102.7086 O   0  0  0  0  0  0  0  0  0  0  0  0
   23.4424   32.7252  105.9208 C   0  0  0  0  0  0  0  0  0  0  0  0
   25.3484   35.1779  102.1064 C   0  0  0  0  0  0  0  0  0  0  0  0
  1 20  1  0
  2  7  1  0
  3 19  2  0
  3 24  1  0
  4  9  1  0
  5 10  1  0
  5 14  1  0
  5 19  1  0
  6  7  1  0
  6  9  1  0
  6 17  1  0
  7 21  1  0
  8  9  1  0
  8 22  2  0
  8 23  1  0
 10 18  1  0
 10 25  1  0
 11 14  2  0
 11 24  1  0
 12 16  2  0
 13 17  1  0
 13 18  1  0
 13 20  1  0
 15 16  1  0
 16 25  1  0
 18 21  1  0
 19 20  1  0
M  END
$$$$
