
     RDKit          3D

 28 28  0  0  0  0  0  0  0  0999 V2000
   27.1798   35.5063  102.6975 N   0  0  0  0  0  0  0  0  0  0  0  0
   23.7945   36.1168   99.8258 C   0  0  0  0  0  0  0  0  0  0  0  0
   29.0940   34.5984  103.7684 N   0  0  0  0  0  0  0  0  0  0  0  0
   22.0124   34.0500  108.6185 C   0  0  0  0  0  0  0  0  0  0  0  0
   20.0125   32.7352  108.2859 N   0  0  0  0  0  0  0  0  0  0  0  0
   26.8610   34.3907  104.7131 N   0  0  0  0  0  0  0  0  0  0  0  0
   25.5273   34.5374  104.5974 C   0  0  0  0  0  0  0  0  0  0  0  0
   32.5165   34.0087  102.1679 O   0  0  0  0  0  0  0  0  0  0  0  0
   29.6749   36.9890  103.6350 O   0  0  0  0  0  0  0  0  0  0  0  0
   23.5718   34.3583  109.1563 S   0  0  0  0  0  0  0  0  0  0  0  0
   29.3246   33.1702  103.4068 C   0  0  0  0  0  0  0  0  0  0  0  0
   25.8459   35.5252  102.3954 C   0  0  0  0  0  0  0  0  0  0  0  0
   21.1792   33.0914  106.1640 C   0  0  0  0  0  0  0  0  0  0  0  0
   23.4141   34.0160  106.2159 O   0  0  0  0  0  0  0  0  0  0  0  0
   30.5527   32.9063  102.7047 C   0  0  0  0  0  0  0  0  0  0  0  0
   27.6705   34.8528  103.7423 C   0  0  0  0  0  0  0  0  0  0  0  0
   24.7236   34.1216  105.8616 C   0  0  0  0  0  0  0  0  0  0  0  0
   24.6716   36.9673  100.7290 O   0  0  0  0  0  0  0  0  0  0  0  0
   31.7120   33.7648  103.3415 C   0  0  0  0  0  0  0  0  0  0  0  0
   25.7318   34.3661  107.0920 C   0  0  0  0  0  0  0  0  0  0  0  0
   21.2707   33.2302  107.6625 C   0  0  0  0  0  0  0  0  0  0  0  0
   24.9649   35.0419  103.4059 C   0  0  0  0  0  0  0  0  0  0  0  0
   25.5774   35.9459  100.9179 C   0  0  0  0  0  0  0  0  0  0  0  0
   31.0165   34.0587  105.7152 O   0  0  0  0  0  0  0  0  0  0  0  0
   31.5857   34.5670  104.5860 C   0  0  0  0  0  0  0  0  0  0  0  0
   32.1096   35.8015  104.7099 O   0  0  0  0  0  0  0  0  0  0  0  0
   22.5377   33.2413  105.4096 C   0  0  0  0  0  0  0  0  0  0  0  0
   29.6215   35.9165  103.7177 C   0  0  0  0  0  0  0  0  0  0  0  0
  1 12  1  0
  1 16  2  0
  2 18  1  0
  3 11  1  0
  3 16  1  0
  3 28  1  0
  4 10  1  0
  4 21  1  0
  5 21  1  0
  6  7  2  0
  6 16  1  0
  7 17  1  0
  7 22  1  0
  8 19  1  0
  9 28  1  0
 11 15  1  0
 12 22  2  0
 12 23  1  0
 13 21  1  0
 13 27  1  0
 14 17  1  0
 14 27  1  0
 15 19  1  0
 17 20  1  0
 18 23  1  0
 19 25  1  0
 24 25  2  0
 25 26  1  0
M  END
$$$$
