
     RDKit          3D

 10 10  0  0  0  0  0  0  0  0999 V2000
  -16.4692   -6.7656    4.8925 C   0  0  0  0  0  0  0  0  0  0  0  0
  -14.0288   -6.2145    5.0220 C   0  0  0  0  0  0  0  0  0  0  0  0
  -17.0106   -6.1148    5.9468 C   0  0  0  0  0  0  0  0  0  0  0  0
  -18.3906   -6.1151    6.1674 C   0  0  0  0  0  0  0  0  0  0  0  0
  -18.6509   -7.3916    4.1726 C   0  0  0  0  0  0  0  0  0  0  0  0
  -19.2078   -6.7670    5.2560 C   0  0  0  0  0  0  0  0  0  0  0  0
  -15.1106   -6.8320    4.6737 N   0  0  0  0  0  0  0  0  0  0  0  0
  -17.2820   -7.4110    3.9720 C   0  0  0  0  0  0  0  0  0  0  0  0
  -13.9348   -5.2060    5.7454 N   0  0  0  0  0  0  0  0  0  0  0  0
  -12.8958   -6.6806    4.4999 N   0  0  0  0  0  0  0  0  0  0  0  0
  1  3  2  0
  1  7  1  0
  1  8  1  0
  2  7  2  3
  2  9  1  0
  2 10  1  0
  3  4  1  0
  4  6  1  0
  5  6  2  0
  5  8  1  0
M  END
$$$$
