
     RDKit          3D

 21 21  0  0  0  0  0  0  0  0999 V2000
  -21.1953   -5.3278    2.4737 C   0  0  0  0  0  0  0  0  0  0  0  0
  -20.4290   -6.4979    1.7733 C   0  0  0  0  0  0  0  0  0  0  0  0
  -13.2256   -6.5477    3.6951 N   0  0  0  0  0  0  0  0  0  0  0  0
  -11.3532   -6.1397    5.5681 O   0  0  0  0  0  0  0  0  0  0  0  0
  -16.3454   -5.9014    5.5837 C   0  0  0  0  0  0  0  0  0  0  0  0
  -19.1976   -5.3519    6.4073 O   0  0  0  0  0  0  0  0  0  0  0  0
  -20.7004   -5.1129    3.9175 C   0  0  0  0  0  0  0  0  0  0  0  0
  -10.9843   -6.6829    4.4956 C   0  0  0  0  0  0  0  0  0  0  0  0
  -19.8781   -6.2902    4.3540 C   0  0  0  0  0  0  0  0  0  0  0  0
  -17.5338   -5.8403    4.9421 N   0  0  0  0  0  0  0  0  0  0  0  0
  -14.0219   -7.2109    5.8965 O   0  0  0  0  0  0  0  0  0  0  0  0
  -19.9313   -7.7989    4.4886 C   0  0  0  0  0  0  0  0  0  0  0  0
  -15.5798   -5.2757    3.4645 O   0  0  0  0  0  0  0  0  0  0  0  0
   -9.8024   -7.2552    4.3721 O   0  0  0  0  0  0  0  0  0  0  0  0
  -18.8280   -5.8229    5.3753 C   0  0  0  0  0  0  0  0  0  0  0  0
  -15.2361   -5.6938    4.6472 C   0  0  0  0  0  0  0  0  0  0  0  0
  -19.8567   -3.7726    3.9762 C   0  0  0  0  0  0  0  0  0  0  0  0
  -20.6303   -7.9802    2.1636 C   0  0  0  0  0  0  0  0  0  0  0  0
  -19.5705   -8.5042    3.1920 C   0  0  0  0  0  0  0  0  0  0  0  0
  -13.9553   -6.4566    4.8563 C   0  0  0  0  0  0  0  0  0  0  0  0
  -11.9303   -7.0478    3.4283 C   0  0  0  0  0  0  0  0  0  0  0  0
  1  2  1  0
  1  7  1  0
  2 18  1  0
  3 20  1  0
  3 21  1  0
  4  8  2  0
  5 10  1  0
  5 16  1  0
  6 15  2  0
  7  9  1  0
  7 17  1  0
  8 14  1  0
  8 21  1  0
  9 12  1  0
  9 15  1  0
 10 15  1  0
 11 20  2  0
 12 19  1  0
 13 16  1  0
 16 20  1  0
 18 19  1  0
M  END
$$$$
