
     RDKit          3D

 28 32  0  0  0  0  0  0  0  0999 V2000
  -16.9878   -5.7636    4.6002 C   0  0  0  0  0  0  0  0  0  0  0  0
  -20.2758   -6.0322    1.8007 O   0  0  0  0  0  0  0  0  0  0  0  0
  -19.3665   -5.6022    4.7328 C   0  0  0  0  0  0  0  0  0  0  0  0
  -21.7223   -5.7659    6.1513 C   0  0  0  0  0  0  0  0  0  0  0  0
  -15.3580   -7.2021    5.3748 C   0  0  0  0  0  0  0  0  0  0  0  0
  -22.6164   -3.7613    3.1863 C   0  0  0  0  0  0  0  0  0  0  0  0
  -12.2756   -6.4657    5.5494 C   0  0  0  0  0  0  0  0  0  0  0  0
  -19.4084   -6.1481    5.9980 C   0  0  0  0  0  0  0  0  0  0  0  0
  -22.8806   -5.7912    6.8783 C   0  0  0  0  0  0  0  0  0  0  0  0
  -16.7436   -6.9597    5.2808 C   0  0  0  0  0  0  0  0  0  0  0  0
  -21.7070   -5.1951    4.8652 C   0  0  0  0  0  0  0  0  0  0  0  0
  -23.9259   -5.0605    6.3905 C   0  0  0  0  0  0  0  0  0  0  0  0
  -21.7694   -4.3737    2.2930 N   0  0  0  0  0  0  0  0  0  0  0  0
  -23.8731   -4.3124    5.2412 C   0  0  0  0  0  0  0  0  0  0  0  0
  -22.7413   -4.4576    4.4249 C   0  0  0  0  0  0  0  0  0  0  0  0
  -10.7922   -7.3515    3.9580 C   0  0  0  0  0  0  0  0  0  0  0  0
  -24.8301   -3.4560    4.8893 O   0  0  0  0  0  0  0  0  0  0  0  0
  -11.6462   -6.9513    2.8607 C   0  0  0  0  0  0  0  0  0  0  0  0
  -13.2342   -6.2840    4.5386 C   0  0  0  0  0  0  0  0  0  0  0  0
  -15.6375   -5.2065    4.2557 C   0  0  0  0  0  0  0  0  0  0  0  0
  -23.1197   -2.4365    3.0252 C   0  0  0  0  0  0  0  0  0  0  0  0
  -18.1691   -5.2363    4.1753 O   0  0  0  0  0  0  0  0  0  0  0  0
  -20.5697   -5.3586    4.0763 C   0  0  0  0  0  0  0  0  0  0  0  0
  -20.5493   -6.2818    6.7114 C   0  0  0  0  0  0  0  0  0  0  0  0
  -12.6740   -6.0668    3.2654 C   0  0  0  0  0  0  0  0  0  0  0  0
  -20.7859   -5.2604    2.6592 C   0  0  0  0  0  0  0  0  0  0  0  0
  -11.0605   -6.7490    5.1278 N   0  0  0  0  0  0  0  0  0  0  0  0
  -14.6246   -6.2062    4.7183 C   0  0  0  0  0  0  0  0  0  0  0  0
  1 10  1  0
  1 20  1  0
  1 22  1  0
  2 26  2  0
  3  8  1  0
  3 22  1  0
  3 23  1  0
  4  9  1  0
  4 11  2  0
  4 24  1  0
  5 10  1  0
  5 28  1  0
  6 13  1  0
  6 15  1  0
  6 21  1  0
  7 19  1  0
  7 27  1  0
  8 24  2  0
  9 12  2  0
 11 15  1  0
 11 23  1  0
 12 14  1  0
 13 26  1  0
 14 15  2  0
 14 17  1  0
 16 18  1  0
 16 27  1  0
 18 25  1  0
 19 25  1  0
 19 28  1  0
 20 28  1  0
 23 26  1  0
M  END
$$$$
