
     RDKit          3D

 15 16  0  0  0  0  0  0  0  0999 V2000
  -12.6414   -6.5544    4.2447 N   0  0  0  0  0  0  0  0  0  0  0  0
  -19.4956   -7.7107    2.3256 C   0  0  0  0  0  0  0  0  0  0  0  0
  -13.6297   -5.8334    6.0270 N   0  0  0  0  0  0  0  0  0  0  0  0
  -11.6452   -7.0357    3.3931 C   0  0  0  0  0  0  0  0  0  0  0  0
  -16.0486   -5.8831    5.3441 C   0  0  0  0  0  0  0  0  0  0  0  0
  -20.0041   -7.7941    4.6590 C   0  0  0  0  0  0  0  0  0  0  0  0
  -20.2996   -8.1579    3.3507 C   0  0  0  0  0  0  0  0  0  0  0  0
  -12.4948   -6.1769    5.4967 C   0  0  0  0  0  0  0  0  0  0  0  0
  -16.8213   -5.8808    4.0761 C   0  0  0  0  0  0  0  0  0  0  0  0
  -14.5384   -6.0231    5.0651 C   0  0  0  0  0  0  0  0  0  0  0  0
  -18.9128   -7.0217    4.9327 C   0  0  0  0  0  0  0  0  0  0  0  0
  -13.9649   -6.4193    3.9057 N   0  0  0  0  0  0  0  0  0  0  0  0
  -10.3684   -7.0339    4.1652 O   0  0  0  0  0  0  0  0  0  0  0  0
  -18.4119   -6.9539    2.5733 C   0  0  0  0  0  0  0  0  0  0  0  0
  -18.0796   -6.6278    3.9057 C   0  0  0  0  0  0  0  0  0  0  0  0
  1  4  1  0
  1  8  1  0
  1 12  1  0
  2  7  1  0
  2 14  2  0
  3  8  1  0
  3 10  2  0
  4 13  1  0
  5  9  1  0
  5 10  1  0
  6  7  1  0
  6 11  2  0
  9 15  1  0
 10 12  1  0
 11 15  1  0
 14 15  1  0
M  END
$$$$
