
     RDKit          3D

  6  5  0  0  0  0  0  0  0  0999 V2000
    1.9451   29.9732  -12.4317 N   0  0  0  0  0  0  0  0  0  0  0  0
    1.0045   31.2110  -12.3968 C   0  0  0  0  0  0  0  0  0  0  0  0
   -0.0338   33.6100  -12.0768 O   0  0  0  0  0  0  0  0  0  0  0  0
    1.3650   34.3949  -10.6818 O   0  0  0  0  0  0  0  0  0  0  0  0
    0.8727   33.5029  -11.3455 C   0  0  0  0  0  0  0  0  0  0  0  0
    1.5376   32.1622  -11.3427 C   0  0  0  0  0  0  0  0  0  0  0  0
  1  2  1  0
  2  6  1  0
  3  5  2  0
  4  5  1  0
  5  6  1  0
M  END
$$$$
