
     RDKit          3D

  9  8  0  0  0  0  0  0  0  0999 V2000
    1.8413   29.9720  -12.5163 C   0  0  0  0  0  0  0  0  0  0  0  0
    2.4597   32.1802  -11.6328 O   0  0  0  0  0  0  0  0  0  0  0  0
    1.4342   28.8040  -13.2696 O   0  0  0  0  0  0  0  0  0  0  0  0
    0.5702   34.5661  -11.2239 C   0  0  0  0  0  0  0  0  0  0  0  0
    1.1149   32.1349  -11.4621 C   0  0  0  0  0  0  0  0  0  0  0  0
    0.4136   35.4378  -10.3551 O   0  0  0  0  0  0  0  0  0  0  0  0
    1.4764   34.6009  -12.1332 O   0  0  0  0  0  0  0  0  0  0  0  0
    0.1061   33.1165  -10.9424 C   0  0  0  0  0  0  0  0  0  0  0  0
    0.5980   30.8018  -12.0209 C   0  0  0  0  0  0  0  0  0  0  0  0
  1  3  1  0
  1  9  1  0
  2  5  1  0
  4  6  2  0
  4  7  1  0
  4  8  1  0
  5  8  1  0
  5  9  1  0
M  END
$$$$
