
     RDKit          3D

 10  9  0  0  0  0  0  0  0  0999 V2000
    0.4741   33.9884  -10.8415 C   0  0  0  0  0  0  0  0  0  0  0  0
   -0.4476   36.1861  -10.9060 O   0  0  0  0  0  0  0  0  0  0  0  0
    0.3962   32.4801  -10.9789 C   0  0  0  0  0  0  0  0  0  0  0  0
    1.3386   28.3071  -13.5874 N   0  0  0  0  0  0  0  0  0  0  0  0
   -0.7811   34.8061  -11.0725 C   0  0  0  0  0  0  0  0  0  0  0  0
    1.3510   31.9051  -12.0593 C   0  0  0  0  0  0  0  0  0  0  0  0
    0.8308   30.4503  -12.4285 C   0  0  0  0  0  0  0  0  0  0  0  0
    2.6480   31.4812  -11.4647 O   0  0  0  0  0  0  0  0  0  0  0  0
    2.0408   29.6705  -13.0517 C   0  0  0  0  0  0  0  0  0  0  0  0
    1.5108   34.4545  -11.5830 O   0  0  0  0  0  0  0  0  0  0  0  0
  1  3  1  0
  1  5  1  0
  1 10  1  0
  2  5  1  0
  3  6  1  0
  4  9  1  0
  6  7  1  0
  6  8  1  0
  7  9  1  0
M  END
$$$$
