
     RDKit          3D

 28 30  0  0  0  0  0  0  0  0999 V2000
    5.6637   -1.9294    1.6915 C   0  0  0  0  0  0  0  0  0  0  0  0
    6.5474    2.4196    2.6576 C   0  0  0  0  0  0  0  0  0  0  0  0
    6.5202    3.2391    3.5555 C   0  0  0  0  0  0  0  0  0  0  0  0
    8.7925   -1.0536   -0.2224 O   0  0  0  0  0  0  0  0  0  0  0  0
    9.2960    2.4797    1.0399 O   0  0  0  0  0  0  0  0  0  0  0  0
    5.3731   -3.3460    2.2224 C   0  0  0  0  0  0  0  0  0  0  0  0
    3.0777   -4.1790    3.1160 O   0  0  0  0  0  0  0  0  0  0  0  0
    4.5204   -1.5256    1.0943 C   0  0  0  0  0  0  0  0  0  0  0  0
    4.0347   -0.5752    0.0846 O   0  0  0  0  0  0  0  0  0  0  0  0
    0.5909    1.3356   -0.1948 C   0  0  0  0  0  0  0  0  0  0  0  0
    8.2568   -2.0625    0.6256 C   0  0  0  0  0  0  0  0  0  0  0  0
    7.7459    1.5800    2.4132 C   0  0  0  0  0  0  0  0  0  0  0  0
   -0.5072    1.2331   -0.3669 O   0  0  0  0  0  0  0  0  0  0  0  0
    9.5009    3.4375    3.4157 O   0  0  0  0  0  0  0  0  0  0  0  0
    2.4456   -0.7298    0.3335 C   0  0  0  0  0  0  0  0  0  0  0  0
    2.2704    3.1280   -0.1788 N   0  0  0  0  0  0  0  0  0  0  0  0
    4.1654   -3.3708    2.2359 N   0  0  0  0  0  0  0  0  0  0  0  0
    2.2101   -1.8467    1.2252 C   0  0  0  0  0  0  0  0  0  0  0  0
    6.9920   -1.4432    1.3508 C   0  0  0  0  0  0  0  0  0  0  0  0
    3.4152   -2.2416    1.6547 C   0  0  0  0  0  0  0  0  0  0  0  0
    0.8082    2.7647    0.0825 C   0  0  0  0  0  0  0  0  0  0  0  0
    5.1000    2.2510    2.3814 C   0  0  0  0  0  0  0  0  0  0  0  0
   -0.2468    3.5043   -0.2587 N   0  0  0  0  0  0  0  0  0  0  0  0
    5.2610    3.9487    3.8028 O   0  0  0  0  0  0  0  0  0  0  0  0
    7.3586   -0.0075    1.9987 N   0  0  0  0  0  0  0  0  0  0  0  0
    9.0181    2.4656    2.3305 C   0  0  0  0  0  0  0  0  0  0  0  0
    1.6277    0.3296   -0.1080 C   0  0  0  0  0  0  0  0  0  0  0  0
    4.5101    3.7072    2.7119 C   0  0  0  0  0  0  0  0  0  0  0  0
  1  6  1  0
  1  8  1  0
  1 19  1  0
  2  3  2  0
  2 12  1  0
  2 22  1  0
  3 24  1  0
  4 11  1  0
  5 26  2  0
  6 17  1  0
  7 17  1  0
  8  9  1  0
  8 20  1  0
  9 15  1  0
 10 13  1  0
 10 21  1  0
 10 27  2  0
 11 19  1  0
 12 25  1  0
 12 26  1  0
 14 26  1  0
 15 18  1  0
 15 27  2  0
 16 21  2  0
 17 20  1  0
 18 20  1  0
 19 25  1  0
 21 23  1  0
 22 28  1  0
 24 28  1  0
M  END
$$$$
