
     RDKit          3D

 65 70  0  0  0  0  0  0  0  0999 V2000
    4.2613   -3.5577    4.7942 C   0  0  0  0  0  0  0  0  0  0  0  0
    0.1344    1.5735   -0.3813 C   0  0  0  0  0  0  0  0  0  0  0  0
    6.7946    1.8646    6.5540 C   0  0  0  0  0  0  0  0  0  0  0  0
    6.5984    3.2821    2.4957 O   0  0  0  0  0  0  0  0  0  0  0  0
   -0.3753    3.1259   -0.6578 C   0  0  0  0  0  0  0  0  0  0  0  0
    4.7222   -5.4007    5.3306 C   0  0  0  0  0  0  0  0  0  0  0  0
    3.9118   -4.4871    6.0382 O   0  0  0  0  0  0  0  0  0  0  0  0
    5.0269   -2.4140    7.9498 C   0  0  0  0  0  0  0  0  0  0  0  0
    8.2533   -1.4645    1.2804 N   0  0  0  0  0  0  0  0  0  0  0  0
    2.5859    0.0157   -0.5029 C   0  0  0  0  0  0  0  0  0  0  0  0
    8.5170   -2.0586    7.6810 C   0  0  0  0  0  0  0  0  0  0  0  0
    3.9689   -4.8871    3.8628 C   0  0  0  0  0  0  0  0  0  0  0  0
    4.3969    4.1736    2.1559 C   0  0  0  0  0  0  0  0  0  0  0  0
    8.9107   -0.8941    2.5844 C   0  0  0  0  0  0  0  0  0  0  0  0
    5.1524    0.3367    7.4104 C   0  0  0  0  0  0  0  0  0  0  0  0
    2.0012    3.1262   -0.2159 C   0  0  0  0  0  0  0  0  0  0  0  0
   -0.2708    1.4018    0.4348 O   0  0  0  0  0  0  0  0  0  0  0  0
    1.1308   -2.3348    3.2765 O   0  0  0  0  0  0  0  0  0  0  0  0
   10.0916   -2.8149    1.3026 C   0  0  0  0  0  0  0  0  0  0  0  0
   10.5180   -0.8361    2.6654 C   0  0  0  0  0  0  0  0  0  0  0  0
    4.1297   -0.9669    0.5695 C   0  0  0  0  0  0  0  0  0  0  0  0
    3.6672    3.1613    1.6113 C   0  0  0  0  0  0  0  0  0  0  0  0
    3.6045   -2.4784    5.0759 O   0  0  0  0  0  0  0  0  0  0  0  0
    2.8929   -1.5849    1.2250 C   0  0  0  0  0  0  0  0  0  0  0  0
    5.5017   -1.0964    0.9182 C   0  0  0  0  0  0  0  0  0  0  0  0
    7.6736   -3.2800    5.6530 C   0  0  0  0  0  0  0  0  0  0  0  0
    5.8930    0.7969    6.3385 O   0  0  0  0  0  0  0  0  0  0  0  0
    5.4893   -6.2692    6.3663 C   0  0  0  0  0  0  0  0  0  0  0  0
    6.5794    1.9886    9.1548 C   0  0  0  0  0  0  0  0  0  0  0  0
    8.5224    3.1660    4.3077 O   0  0  0  0  0  0  0  0  0  0  0  0
    5.3555    3.7830    3.2537 C   0  0  0  0  0  0  0  0  0  0  0  0
    6.4601   -5.2132    6.7395 C   0  0  0  0  0  0  0  0  0  0  0  0
    7.1549   -4.7569    5.3688 C   0  0  0  0  0  0  0  0  0  0  0  0
    0.4832    4.0776   -0.8204 O   0  0  0  0  0  0  0  0  0  0  0  0
    3.4555   -2.7123    2.1815 C   0  0  0  0  0  0  0  0  0  0  0  0
    7.5414   -5.7495    7.4881 O   0  0  0  0  0  0  0  0  0  0  0  0
   11.2462   -1.8564    1.8604 C   0  0  0  0  0  0  0  0  0  0  0  0
    7.2795   -2.8916    7.1542 C   0  0  0  0  0  0  0  0  0  0  0  0
    2.4195   -3.4047    2.7432 C   0  0  0  0  0  0  0  0  0  0  0  0
    8.5729    2.5808    1.7569 O   0  0  0  0  0  0  0  0  0  0  0  0
    5.1861   -4.7930    8.6847 C   0  0  0  0  0  0  0  0  0  0  0  0
   -2.5447    2.2656   -0.6098 O   0  0  0  0  0  0  0  0  0  0  0  0
   10.2719   -4.0942    1.7167 C   0  0  0  0  0  0  0  0  0  0  0  0
    8.6610   -0.5386    7.9266 O   0  0  0  0  0  0  0  0  0  0  0  0
    8.6652    0.8705    7.7844 C   0  0  0  0  0  0  0  0  0  0  0  0
    1.9805   -0.7000    0.4864 O   0  0  0  0  0  0  0  0  0  0  0  0
    4.7768   -2.2685    9.1854 O   0  0  0  0  0  0  0  0  0  0  0  0
    4.6950   -1.1126    7.2611 N   0  0  0  0  0  0  0  0  0  0  0  0
   -1.7197    2.8200   -1.2917 C   0  0  0  0  0  0  0  0  0  0  0  0
    8.9403   -1.9934   -0.7833 C   0  0  0  0  0  0  0  0  0  0  0  0
    9.1204   -2.3604    0.4231 C   0  0  0  0  0  0  0  0  0  0  0  0
    5.9431   -3.8081    7.5850 C   0  0  0  0  0  0  0  0  0  0  0  0
    3.0314    3.2024    0.5233 N   0  0  0  0  0  0  0  0  0  0  0  0
    5.2508    4.2548    4.3336 O   0  0  0  0  0  0  0  0  0  0  0  0
    5.1047    1.4153    8.5070 C   0  0  0  0  0  0  0  0  0  0  0  0
    6.8787   -1.3402    0.9233 C   0  0  0  0  0  0  0  0  0  0  0  0
    4.6492    4.8439    1.8124 O   0  0  0  0  0  0  0  0  0  0  0  0
    1.8150    1.6429   -0.9762 C   0  0  0  0  0  0  0  0  0  0  0  0
    3.7478   -0.3725   -0.6165 O   0  0  0  0  0  0  0  0  0  0  0  0
    2.8793   -4.7303    3.7666 O   0  0  0  0  0  0  0  0  0  0  0  0
    4.7016   -3.2507    2.0912 O   0  0  0  0  0  0  0  0  0  0  0  0
   10.0070    1.4880    7.3820 Cl  0  0  0  0  0  0  0  0  0  0  0  0
    7.8909    2.6783    3.3186 P   0  0  0  0  0  0  0  0  0  0  0  0
    6.9098    1.6259    4.9961 O   0  0  0  0  0  0  0  0  0  0  0  0
    7.4692    1.8513    7.8721 C   0  0  0  0  0  0  0  0  0  0  0  0
  1  7  1  0
  1 12  1  0
  1 23  1  0
  2  5  1  0
  2 17  1  0
  2 58  1  0
  3 27  1  0
  3 64  1  0
  3 65  1  0
  4 31  1  0
  4 63  1  0
  5 34  1  0
  5 49  1  0
  6  7  1  0
  6 12  1  0
  6 28  1  0
  8 47  2  0
  8 48  1  0
  8 52  1  0
  9 14  1  0
  9 51  1  0
  9 56  1  0
 10 46  1  0
 10 58  1  0
 10 59  1  0
 11 38  1  0
 11 44  1  0
 12 60  1  0
 13 22  1  0
 13 31  1  0
 13 57  2  0
 14 20  1  0
 15 27  1  0
 15 48  1  0
 15 55  1  0
 16 53  1  0
 16 58  1  0
 18 39  2  0
 19 37  1  0
 19 43  2  0
 19 51  1  0
 20 37  1  0
 21 24  1  0
 21 25  1  0
 21 59  1  0
 22 53  1  0
 24 35  1  0
 24 46  1  0
 25 56  3  0
 26 33  1  0
 26 38  1  0
 28 32  1  0
 29 55  1  0
 29 65  1  0
 30 63  1  0
 31 54  2  0
 32 33  1  0
 32 36  1  0
 32 52  1  0
 35 39  1  0
 35 61  1  0
 38 52  1  0
 39 60  1  0
 40 63  1  0
 41 52  1  0
 42 49  2  0
 44 45  1  0
 45 62  1  0
 45 65  1  0
 50 51  2  0
M  END
$$$$
