
     RDKit          3D

 31 31  0  0  0  0  0  0  0  0999 V2000
    8.6160   -0.9118    0.2014 C   0  0  0  0  0  0  0  0  0  0  0  0
    3.7585   -1.9208    1.4366 N   0  0  0  0  0  0  0  0  0  0  0  0
    2.6402   -4.1818    2.8246 O   0  0  0  0  0  0  0  0  0  0  0  0
   -0.0795    3.5086    0.0937 N   0  0  0  0  0  0  0  0  0  0  0  0
    2.7642    2.9817    0.7476 C   0  0  0  0  0  0  0  0  0  0  0  0
    2.2198   -1.8334    1.3503 C   0  0  0  0  0  0  0  0  0  0  0  0
    4.6599    3.5959    2.1375 C   0  0  0  0  0  0  0  0  0  0  0  0
    6.2284   -1.3698    1.2171 C   0  0  0  0  0  0  0  0  0  0  0  0
    5.2340    4.5127    4.0605 O   0  0  0  0  0  0  0  0  0  0  0  0
    5.3762    3.5818    4.0685 C   0  0  0  0  0  0  0  0  0  0  0  0
    2.5351    0.7877    0.5088 C   0  0  0  0  0  0  0  0  0  0  0  0
    9.1759    2.3118    0.7510 N   0  0  0  0  0  0  0  0  0  0  0  0
    1.6907    2.0940    0.5093 C   0  0  0  0  0  0  0  0  0  0  0  0
    8.1130   -2.0944    0.9713 C   0  0  0  0  0  0  0  0  0  0  0  0
    1.0732   -2.5039    2.9069 O   0  0  0  0  0  0  0  0  0  0  0  0
    7.1660    2.9433    2.5100 O   0  0  0  0  0  0  0  0  0  0  0  0
   10.5832   -2.0689    1.3545 O   0  0  0  0  0  0  0  0  0  0  0  0
    3.7397    1.1975    1.2316 C   0  0  0  0  0  0  0  0  0  0  0  0
    3.6613    2.6927    1.5116 C   0  0  0  0  0  0  0  0  0  0  0  0
    5.7347    1.3203    3.1631 C   0  0  0  0  0  0  0  0  0  0  0  0
    6.2021    0.0476    2.2832 C   0  0  0  0  0  0  0  0  0  0  0  0
    9.3440    0.4769    0.7806 C   0  0  0  0  0  0  0  0  0  0  0  0
    4.9447   -2.2367    1.7759 C   0  0  0  0  0  0  0  0  0  0  0  0
    9.4262   -3.1133    0.8580 C   0  0  0  0  0  0  0  0  0  0  0  0
    9.5202   -3.9204    2.0321 C   0  0  0  0  0  0  0  0  0  0  0  0
    5.0285    3.0598    5.1780 O   0  0  0  0  0  0  0  0  0  0  0  0
    1.7275   -2.9559    2.3964 C   0  0  0  0  0  0  0  0  0  0  0  0
    2.0589   -0.7407    0.3637 C   0  0  0  0  0  0  0  0  0  0  0  0
    0.4063    2.2468   -0.0549 C   0  0  0  0  0  0  0  0  0  0  0  0
    5.9192    2.9072    2.8716 C   0  0  0  0  0  0  0  0  0  0  0  0
   -0.1559    0.8945   -0.4351 O   0  0  0  0  0  0  0  0  0  0  0  0
  1 14  1  0
  1 22  1  0
  2  6  1  0
  2 23  1  0
  3 27  2  0
  4 29  1  0
  5 13  1  0
  5 19  1  0
  6 27  1  0
  6 28  1  0
  7 19  2  3
  7 30  1  0
  8 21  1  0
  8 23  1  0
  9 10  2  0
 10 26  1  0
 10 30  1  0
 11 13  1  0
 11 18  1  0
 11 28  1  0
 12 22  1  0
 13 29  1  0
 14 24  1  0
 15 27  1  0
 16 30  1  0
 17 24  1  0
 18 19  1  0
 20 21  1  0
 20 30  1  0
 24 25  1  0
 29 31  2  0
M  END
$$$$
