
     RDKit          3D

 32 31  0  0  0  0  0  0  0  0999 V2000
    5.5329    3.4452    3.6619 P   0  0  0  0  0  0  0  0  0  0  0  0
   -0.0429    3.4381   -0.4966 N   0  0  0  0  0  0  0  0  0  0  0  0
   -0.3419    2.3679   -1.3011 N   0  0  0  0  0  0  0  0  0  0  0  0
    9.3011    2.3665    0.7858 O   0  0  0  0  0  0  0  0  0  0  0  0
   10.1512   -3.4625    1.3383 O   0  0  0  0  0  0  0  0  0  0  0  0
    4.6496   -2.7442    2.3317 N   0  0  0  0  0  0  0  0  0  0  0  0
    3.5622   -0.0492    1.1240 C   0  0  0  0  0  0  0  0  0  0  0  0
    1.1352   -2.4134    2.5611 O   0  0  0  0  0  0  0  0  0  0  0  0
    2.5704   -1.2789    1.0286 C   0  0  0  0  0  0  0  0  0  0  0  0
    4.8020    2.9779    5.1572 O   0  0  0  0  0  0  0  0  0  0  0  0
   -1.0429    3.2033   -0.8599 N   0  0  0  0  0  0  0  0  0  0  0  0
    1.3196    0.4521   -0.0168 C   0  0  0  0  0  0  0  0  0  0  0  0
    9.7568    0.0892   -0.2736 C   0  0  0  0  0  0  0  0  0  0  0  0
    7.2635    3.3352    4.0471 O   0  0  0  0  0  0  0  0  0  0  0  0
    5.5823    3.5167    2.1357 O   0  0  0  0  0  0  0  0  0  0  0  0
    0.7430    2.9026    0.1715 C   0  0  0  0  0  0  0  0  0  0  0  0
    5.1866    0.9467    2.7494 C   0  0  0  0  0  0  0  0  0  0  0  0
    1.6949    1.7183    0.3275 C   0  0  0  0  0  0  0  0  0  0  0  0
   10.6649   -1.0305    0.4644 C   0  0  0  0  0  0  0  0  0  0  0  0
   10.0074    1.6642    0.0458 C   0  0  0  0  0  0  0  0  0  0  0  0
    9.7128   -2.3582    0.5961 C   0  0  0  0  0  0  0  0  0  0  0  0
    3.0994   -4.5072    3.2242 C   0  0  0  0  0  0  0  0  0  0  0  0
    2.3351   -0.5806    0.1222 N   0  0  0  0  0  0  0  0  0  0  0  0
    2.2603   -2.3153    1.9351 C   0  0  0  0  0  0  0  0  0  0  0  0
    4.7261   -0.2534    1.9313 C   0  0  0  0  0  0  0  0  0  0  0  0
    5.0893   -1.6371    2.0703 C   0  0  0  0  0  0  0  0  0  0  0  0
    7.7621   -2.9050    1.8934 C   0  0  0  0  0  0  0  0  0  0  0  0
    5.4011    4.4609    4.0801 O   0  0  0  0  0  0  0  0  0  0  0  0
    8.4095   -2.2409    0.5790 C   0  0  0  0  0  0  0  0  0  0  0  0
    3.1175    1.3103    0.9098 N   0  0  0  0  0  0  0  0  0  0  0  0
    3.4219   -3.2179    2.5130 C   0  0  0  0  0  0  0  0  0  0  0  0
    6.6564    1.0848    2.4711 O   0  0  0  0  0  0  0  0  0  0  0  0
  1 10  1  0
  1 14  1  0
  1 15  1  0
  1 28  1  0
  2 11  1  0
  2 16  1  0
  3 11  1  0
  4 20  2  0
  5 21  1  0
  6 26  2  0
  6 31  1  0
  7  9  1  0
  7 25  1  0
  7 30  2  0
  8 24  1  0
  9 23  1  0
  9 24  1  0
 12 18  2  0
 12 23  1  0
 13 19  1  0
 13 20  1  0
 16 18  1  0
 17 25  1  0
 17 32  1  0
 18 30  1  0
 19 21  1  0
 21 29  1  0
 22 31  1  0
 24 31  1  0
 25 26  1  0
 27 29  1  0
M  END
$$$$
