
     RDKit          3D

 28 28  0  0  0  0  0  0  0  0999 V2000
    7.8562    1.5375    2.3551 C   0  0  0  0  0  0  0  0  0  0  0  0
    7.6047   -0.0847    1.8801 O   0  0  0  0  0  0  0  0  0  0  0  0
    3.2581    2.4625    1.2511 C   0  0  0  0  0  0  0  0  0  0  0  0
    2.5858    2.9465    0.3262 N   0  0  0  0  0  0  0  0  0  0  0  0
    4.6789    4.7342    1.8893 O   0  0  0  0  0  0  0  0  0  0  0  0
    2.3365   -1.8441    1.4258 C   0  0  0  0  0  0  0  0  0  0  0  0
    4.4522    2.9696    2.1148 C   0  0  0  0  0  0  0  0  0  0  0  0
    5.5873   -4.8297    2.8164 O   0  0  0  0  0  0  0  0  0  0  0  0
    8.5243    2.3469    1.6369 O   0  0  0  0  0  0  0  0  0  0  0  0
    4.6462    4.2618    2.4767 C   0  0  0  0  0  0  0  0  0  0  0  0
   -0.2590    1.1202   -0.1436 O   0  0  0  0  0  0  0  0  0  0  0  0
    8.5433   -2.0255    0.2311 C   0  0  0  0  0  0  0  0  0  0  0  0
    5.6404    3.2054    4.2743 C   0  0  0  0  0  0  0  0  0  0  0  0
    2.0836    0.4819    0.2077 C   0  0  0  0  0  0  0  0  0  0  0  0
    0.9608    1.4118   -0.1660 C   0  0  0  0  0  0  0  0  0  0  0  0
    3.9536   -1.8939    1.4514 C   0  0  0  0  0  0  0  0  0  0  0  0
    1.2201    2.7683    0.1458 C   0  0  0  0  0  0  0  0  0  0  0  0
    2.0961   -0.8970    0.3742 C   0  0  0  0  0  0  0  0  0  0  0  0
    5.6905   -3.3471    2.7188 C   0  0  0  0  0  0  0  0  0  0  0  0
    7.1677   -1.6271    1.2435 C   0  0  0  0  0  0  0  0  0  0  0  0
    4.9411    2.8927    5.3758 O   0  0  0  0  0  0  0  0  0  0  0  0
    3.1941    1.0973    0.9108 N   0  0  0  0  0  0  0  0  0  0  0  0
    4.3867   -2.8800    2.3541 C   0  0  0  0  0  0  0  0  0  0  0  0
    7.0017   -2.8582    2.2403 C   0  0  0  0  0  0  0  0  0  0  0  0
    0.1556    3.6100   -0.1823 N   0  0  0  0  0  0  0  0  0  0  0  0
    5.2637    4.5555    4.3390 O   0  0  0  0  0  0  0  0  0  0  0  0
    6.6695    2.6974    3.0526 C   0  0  0  0  0  0  0  0  0  0  0  0
    5.7044    2.2598    2.1988 O   0  0  0  0  0  0  0  0  0  0  0  0
  1  2  2  0
  1  9  1  0
  1 27  1  0
  3  4  2  0
  3  7  1  0
  3 22  1  0
  4 17  1  0
  5 10  1  0
  6 16  1  0
  6 18  1  0
  7 10  1  0
  7 28  1  0
  8 19  1  0
 11 15  2  0
 12 20  1  0
 13 21  2  0
 13 26  1  0
 13 27  1  0
 14 15  1  0
 14 18  1  0
 14 22  2  0
 15 17  1  0
 16 23  1  0
 17 25  2  0
 19 23  1  0
 19 24  1  0
 20 24  1  0
 27 28  1  0
M  END
$$$$
