
     RDKit          3D

 25 25  0  0  0  0  0  0  0  0999 V2000
    3.1952    3.6825    0.5545 O   0  0  0  0  0  0  0  0  0  0  0  0
    5.6246   -1.0483    1.8536 N   0  0  0  0  0  0  0  0  0  0  0  0
    2.7986    1.7605    0.5840 C   0  0  0  0  0  0  0  0  0  0  0  0
    6.6797    3.0655    4.4886 O   0  0  0  0  0  0  0  0  0  0  0  0
    7.6505   -1.4781    0.5732 N   0  0  0  0  0  0  0  0  0  0  0  0
    2.7877    3.0319    0.5415 C   0  0  0  0  0  0  0  0  0  0  0  0
    7.0541   -3.0267    2.3348 C   0  0  0  0  0  0  0  0  0  0  0  0
    3.9077   -0.6610    0.0650 C   0  0  0  0  0  0  0  0  0  0  0  0
    5.0630    0.4309    2.3130 C   0  0  0  0  0  0  0  0  0  0  0  0
    6.7526   -1.8827    1.5588 C   0  0  0  0  0  0  0  0  0  0  0  0
    0.4811    2.3173   -0.2061 C   0  0  0  0  0  0  0  0  0  0  0  0
    9.1492   -3.4481    0.8653 C   0  0  0  0  0  0  0  0  0  0  0  0
    6.0680    1.5936    2.5284 C   0  0  0  0  0  0  0  0  0  0  0  0
    8.8032   -2.3746    0.1376 C   0  0  0  0  0  0  0  0  0  0  0  0
    4.2713   -1.5884    1.2314 C   0  0  0  0  0  0  0  0  0  0  0  0
    1.5173    0.0157   -0.0018 C   0  0  0  0  0  0  0  0  0  0  0  0
    5.3999    2.9732    2.4890 C   0  0  0  0  0  0  0  0  0  0  0  0
   -0.9447    3.1043   -0.9064 O   0  0  0  0  0  0  0  0  0  0  0  0
    5.6270    3.6209    3.7935 C   0  0  0  0  0  0  0  0  0  0  0  0
   -2.1546    2.1544   -0.6261 C   0  0  0  0  0  0  0  0  0  0  0  0
    5.3379    4.4900    4.2458 O   0  0  0  0  0  0  0  0  0  0  0  0
   -0.0038    3.5705   -0.2104 N   0  0  0  0  0  0  0  0  0  0  0  0
    8.2508   -3.7451    2.0537 C   0  0  0  0  0  0  0  0  0  0  0  0
    0.2061    1.0286    0.1137 N   0  0  0  0  0  0  0  0  0  0  0  0
    2.7383    0.4080    0.2222 C   0  0  0  0  0  0  0  0  0  0  0  0
  1  6  1  0
  2  9  1  0
  2 10  1  0
  2 15  1  0
  3  6  2  0
  3 25  2  0
  4 19  2  0
  5 10  1  0
  5 14  2  0
  7 10  2  0
  7 23  1  0
  8 15  1  0
  8 25  1  0
  9 13  1  0
 11 22  1  0
 11 24  1  0
 12 14  1  0
 12 23  2  0
 13 17  1  0
 16 24  1  0
 16 25  1  0
 17 19  1  0
 18 20  1  0
 18 22  1  0
 19 21  1  0
M  END
$$$$
