
     RDKit          3D

 22 22  0  0  0  0  0  0  0  0999 V2000
    1.6710   -0.3950    0.2686 O   0  0  0  0  0  0  0  0  0  0  0  0
    4.9392   -2.2108    1.8155 C   0  0  0  0  0  0  0  0  0  0  0  0
    3.2562    1.3715    1.1004 C   0  0  0  0  0  0  0  0  0  0  0  0
    4.0048   -0.3147    0.5213 C   0  0  0  0  0  0  0  0  0  0  0  0
    5.9292    3.3343    2.2299 O   0  0  0  0  0  0  0  0  0  0  0  0
    0.0656    3.4482   -0.0201 C   0  0  0  0  0  0  0  0  0  0  0  0
    1.3413   -2.5646    2.4981 O   0  0  0  0  0  0  0  0  0  0  0  0
    8.8274   -2.5803    0.3904 C   0  0  0  0  0  0  0  0  0  0  0  0
    3.7693    2.7809    1.6880 N   0  0  0  0  0  0  0  0  0  0  0  0
    9.4353   -3.8185    0.3209 O   0  0  0  0  0  0  0  0  0  0  0  0
    3.7240   -1.7438    1.2828 C   0  0  0  0  0  0  0  0  0  0  0  0
    1.8689    1.8691    0.5680 C   0  0  0  0  0  0  0  0  0  0  0  0
    4.7334    4.6971    1.6295 O   0  0  0  0  0  0  0  0  0  0  0  0
    0.9939    0.7801    0.0243 C   0  0  0  0  0  0  0  0  0  0  0  0
    2.2496   -2.2163    2.0155 C   0  0  0  0  0  0  0  0  0  0  0  0
    4.6272    3.8274    2.0954 C   0  0  0  0  0  0  0  0  0  0  0  0
   -0.2620    1.1151   -0.0821 C   0  0  0  0  0  0  0  0  0  0  0  0
   -0.5336    2.5491   -0.3143 C   0  0  0  0  0  0  0  0  0  0  0  0
    8.9344   -1.7403   -0.6847 C   0  0  0  0  0  0  0  0  0  0  0  0
    7.6399   -2.2026    1.4267 C   0  0  0  0  0  0  0  0  0  0  0  0
    6.2579   -1.5109    1.2757 C   0  0  0  0  0  0  0  0  0  0  0  0
    1.5922    3.0323   -0.1371 C   0  0  0  0  0  0  0  0  0  0  0  0
  1 14  1  0
  2 11  1  0
  2 21  2  3
  3  4  1  0
  3  9  1  0
  3 12  1  0
  4 11  1  0
  5 16  1  0
  6 18  1  0
  6 22  1  0
  7 15  2  0
  8 10  1  0
  8 19  2  0
  8 20  1  0
  9 16  1  0
 11 15  2  0
 12 14  1  0
 12 22  1  0
 13 16  1  0
 14 17  1  0
 17 18  1  0
 20 21  1  0
M  END
$$$$
