
     RDKit          3D

 22 22  0  0  0  0  0  0  0  0999 V2000
    3.5828    3.2880    1.1240 C   0  0  0  0  0  0  0  0  0  0  0  0
    4.5644   -0.2628    1.2437 N   0  0  0  0  0  0  0  0  0  0  0  0
    3.5762   -0.9466    0.6038 C   0  0  0  0  0  0  0  0  0  0  0  0
    1.6618   -0.1780   -0.1015 O   0  0  0  0  0  0  0  0  0  0  0  0
    0.0661    3.5442   -0.1330 N   0  0  0  0  0  0  0  0  0  0  0  0
    7.0538   -2.8597    2.2537 C   0  0  0  0  0  0  0  0  0  0  0  0
    2.9242   -1.9382    1.4642 O   0  0  0  0  0  0  0  0  0  0  0  0
    4.1329    1.1779    1.6443 C   0  0  0  0  0  0  0  0  0  0  0  0
    0.7843    2.8054    0.0557 C   0  0  0  0  0  0  0  0  0  0  0  0
    6.6954    1.5511    2.5725 C   0  0  0  0  0  0  0  0  0  0  0  0
    2.3083    2.8530    0.3723 C   0  0  0  0  0  0  0  0  0  0  0  0
    0.5337    1.8272   -1.0258 O   0  0  0  0  0  0  0  0  0  0  0  0
    7.5867    0.1933    2.2160 C   0  0  0  0  0  0  0  0  0  0  0  0
    5.3782   -0.9858    2.2927 C   0  0  0  0  0  0  0  0  0  0  0  0
    7.6351    3.6673    4.0657 O   0  0  0  0  0  0  0  0  0  0  0  0
    2.9164    1.4932    0.7820 C   0  0  0  0  0  0  0  0  0  0  0  0
    8.5180    2.6486    2.0343 O   0  0  0  0  0  0  0  0  0  0  0  0
    7.6476    2.7025    2.9781 C   0  0  0  0  0  0  0  0  0  0  0  0
    6.7974   -1.3291    1.5664 C   0  0  0  0  0  0  0  0  0  0  0  0
    2.5371    0.1227    0.2319 C   0  0  0  0  0  0  0  0  0  0  0  0
    4.6184    4.3389    1.3841 O   0  0  0  0  0  0  0  0  0  0  0  0
    5.2308    2.0535    2.3584 C   0  0  0  0  0  0  0  0  0  0  0  0
  1 11  1  0
  1 21  1  0
  2  3  1  0
  2  8  1  0
  2 14  1  0
  3  7  1  0
  3 20  1  0
  4 20  2  0
  5  9  1  0
  6 19  1  0
  8 16  1  0
  8 22  1  0
  9 11  1  0
  9 12  2  0
 10 13  1  0
 10 18  1  0
 10 22  2  3
 11 16  1  0
 14 19  1  0
 15 18  2  0
 16 20  1  0
 17 18  1  0
M  END
$$$$
