
     RDKit          3D

 25 26  0  0  0  0  0  0  0  0999 V2000
    2.3534   -1.2932    0.8534 C   0  0  0  0  0  0  0  0  0  0  0  0
    2.4953   -2.2237    1.8916 C   0  0  0  0  0  0  0  0  0  0  0  0
    4.3630   -0.4760    0.8277 C   0  0  0  0  0  0  0  0  0  0  0  0
    0.8169    0.7490    0.1541 C   0  0  0  0  0  0  0  0  0  0  0  0
   -0.4405    3.7499   -0.5187 N   0  0  0  0  0  0  0  0  0  0  0  0
    2.2477    2.8403    0.2435 N   0  0  0  0  0  0  0  0  0  0  0  0
    4.6870    4.7673    1.7280 O   0  0  0  0  0  0  0  0  0  0  0  0
    1.0061    2.3347    0.0028 C   0  0  0  0  0  0  0  0  0  0  0  0
    8.0683   -2.1938    1.0080 C   0  0  0  0  0  0  0  0  0  0  0  0
   10.3795   -3.1210    1.8012 C   0  0  0  0  0  0  0  0  0  0  0  0
    5.3136    4.4408    4.3917 O   0  0  0  0  0  0  0  0  0  0  0  0
    6.6112   -2.3099    1.9125 C   0  0  0  0  0  0  0  0  0  0  0  0
    9.2482   -3.3967    0.7003 C   0  0  0  0  0  0  0  0  0  0  0  0
    6.2845    3.0965    2.3624 O   0  0  0  0  0  0  0  0  0  0  0  0
    2.2122    0.0371    0.2031 C   0  0  0  0  0  0  0  0  0  0  0  0
    3.2626    0.8149    0.8262 C   0  0  0  0  0  0  0  0  0  0  0  0
   -0.0738    3.1581   -0.2552 C   0  0  0  0  0  0  0  0  0  0  0  0
    3.0672    2.2996    1.1213 C   0  0  0  0  0  0  0  0  0  0  0  0
    3.7940    3.0397    2.1109 C   0  0  0  0  0  0  0  0  0  0  0  0
    5.5379    0.0355    1.6470 O   0  0  0  0  0  0  0  0  0  0  0  0
    3.9295   -1.7775    1.3905 C   0  0  0  0  0  0  0  0  0  0  0  0
    4.9633   -2.5348    2.1069 C   0  0  0  0  0  0  0  0  0  0  0  0
    1.4355   -3.0713    2.5979 O   0  0  0  0  0  0  0  0  0  0  0  0
   10.7930   -4.4119    2.3373 C   0  0  0  0  0  0  0  0  0  0  0  0
    4.8479    3.8038    2.7415 P   0  0  0  0  0  0  0  0  0  0  0  0
  1  2  1  0
  1 15  1  0
  2 21  1  0
  2 23  1  0
  3 16  1  0
  3 20  1  0
  3 21  1  0
  4  8  1  0
  4 15  1  0
  5 17  3  0
  6  8  1  0
  6 18  1  0
  7 25  1  0
  8 17  1  0
  9 12  1  0
  9 13  1  0
 10 13  1  0
 10 24  1  0
 11 25  1  0
 12 22  1  0
 14 25  1  0
 15 16  1  0
 16 18  1  0
 18 19  1  0
 19 25  1  0
 21 22  1  0
M  END
$$$$
