
     RDKit          3D

 31 33  0  0  0  0  0  0  0  0999 V2000
    4.1588   -2.2522    1.7746 C   0  0  0  0  0  0  0  0  0  0  0  0
    4.7262    4.7818    1.7957 O   0  0  0  0  0  0  0  0  0  0  0  0
    1.2113    2.8174    0.1918 N   0  0  0  0  0  0  0  0  0  0  0  0
    0.1438    2.8187   -0.1443 C   0  0  0  0  0  0  0  0  0  0  0  0
    6.8614   -1.9378    1.6064 N   0  0  0  0  0  0  0  0  0  0  0  0
    5.9431    3.4857    3.6772 C   0  0  0  0  0  0  0  0  0  0  0  0
    2.3399    2.3285    0.8771 C   0  0  0  0  0  0  0  0  0  0  0  0
    8.8524   -2.3135   -0.1047 C   0  0  0  0  0  0  0  0  0  0  0  0
    5.6877    1.0824    5.8914 O   0  0  0  0  0  0  0  0  0  0  0  0
    3.4608    2.9993    1.5278 C   0  0  0  0  0  0  0  0  0  0  0  0
    7.3570   -1.4752    2.9505 C   0  0  0  0  0  0  0  0  0  0  0  0
    1.2969    0.6954   -0.1511 C   0  0  0  0  0  0  0  0  0  0  0  0
    2.4421   -3.4930    2.6457 C   0  0  0  0  0  0  0  0  0  0  0  0
    6.4452    1.0981    4.6068 C   0  0  0  0  0  0  0  0  0  0  0  0
   -0.0457    1.0905   -0.2207 C   0  0  0  0  0  0  0  0  0  0  0  0
    3.6853   -3.3540    2.5932 C   0  0  0  0  0  0  0  0  0  0  0  0
    9.2482   -3.4321    0.7022 C   0  0  0  0  0  0  0  0  0  0  0  0
   -0.8198    3.5202   -0.4888 N   0  0  0  0  0  0  0  0  0  0  0  0
    2.3296    0.8663    0.4750 C   0  0  0  0  0  0  0  0  0  0  0  0
    1.5049   -2.6165    2.4117 N   0  0  0  0  0  0  0  0  0  0  0  0
    5.2499    4.2144    4.4068 O   0  0  0  0  0  0  0  0  0  0  0  0
    9.5357   -1.2599   -0.9005 C   0  0  0  0  0  0  0  0  0  0  0  0
    4.3836    4.0194    1.9720 C   0  0  0  0  0  0  0  0  0  0  0  0
    7.7093   -1.4757    0.5468 C   0  0  0  0  0  0  0  0  0  0  0  0
    3.0661   -1.5064    1.1765 C   0  0  0  0  0  0  0  0  0  0  0  0
    5.7992    3.2722    2.2272 N   0  0  0  0  0  0  0  0  0  0  0  0
    6.9871    2.5379    4.3108 C   0  0  0  0  0  0  0  0  0  0  0  0
    5.5235   -1.9784    1.6379 C   0  0  0  0  0  0  0  0  0  0  0  0
    2.0493   -1.9179    1.5857 N   0  0  0  0  0  0  0  0  0  0  0  0
    3.3860   -0.3119    0.4128 N   0  0  0  0  0  0  0  0  0  0  0  0
    6.5315   -0.2456    3.7760 C   0  0  0  0  0  0  0  0  0  0  0  0
  1 16  1  0
  1 25  2  0
  1 28  1  0
  2 23  2  0
  3  4  1  0
  3  7  1  0
  4 15  1  0
  4 18  2  0
  5 11  1  0
  5 24  1  0
  5 28  1  0
  6 21  2  0
  6 26  1  0
  6 27  1  0
  7 10  2  3
  7 19  1  0
  8 17  1  0
  8 22  1  0
  8 24  1  0
  9 14  1  0
 10 23  1  0
 11 31  1  0
 12 15  1  0
 12 19  1  0
 13 16  1  0
 13 20  1  0
 14 27  1  0
 14 31  1  0
 19 30  1  0
 20 29  1  0
 23 26  1  0
 25 29  1  0
 25 30  1  0
M  END
$$$$
