
     RDKit          3D

 25 27  0  0  0  0  0  0  0  0999 V2000
  104.1494    5.9730  -91.2207 C   0  0  0  0  0  0  0  0  0  0  0  0
   98.5816    7.7972  -89.9665 C   0  0  0  0  0  0  0  0  0  0  0  0
  105.2646    4.1211  -92.3337 O   0  0  0  0  0  0  0  0  0  0  0  0
   98.9996    9.8919  -91.1276 C   0  0  0  0  0  0  0  0  0  0  0  0
  100.2831    3.5854  -92.8892 C   0  0  0  0  0  0  0  0  0  0  0  0
  102.1789    7.8538  -91.1802 C   0  0  0  0  0  0  0  0  0  0  0  0
  100.3416    9.5427  -91.2870 C   0  0  0  0  0  0  0  0  0  0  0  0
  100.7978    8.2961  -90.8570 C   0  0  0  0  0  0  0  0  0  0  0  0
   99.7766    4.0210  -89.9291 C   0  0  0  0  0  0  0  0  0  0  0  0
  104.9476    7.1719  -90.5858 C   0  0  0  0  0  0  0  0  0  0  0  0
  100.6887    5.0732  -90.5435 C   0  0  0  0  0  0  0  0  0  0  0  0
   99.0936    3.3064  -92.1996 O   0  0  0  0  0  0  0  0  0  0  0  0
  102.6660    6.4918  -91.3654 N   0  0  0  0  0  0  0  0  0  0  0  0
  100.4810    6.1711  -89.5508 C   0  0  0  0  0  0  0  0  0  0  0  0
  101.7083    5.3725  -91.6394 C   0  0  0  0  0  0  0  0  0  0  0  0
  101.6864    4.3476  -92.8570 C   0  0  0  0  0  0  0  0  0  0  0  0
   99.9353    7.4550  -90.1246 C   0  0  0  0  0  0  0  0  0  0  0  0
   98.1128    9.0312  -90.4870 C   0  0  0  0  0  0  0  0  0  0  0  0
  100.0569    3.6212  -88.7247 O   0  0  0  0  0  0  0  0  0  0  0  0
  102.2847    3.0358  -93.7028 C   0  0  0  0  0  0  0  0  0  0  0  0
  105.2737    4.8658  -91.3301 C   0  0  0  0  0  0  0  0  0  0  0  0
  106.2025    4.8397  -90.5059 O   0  0  0  0  0  0  0  0  0  0  0  0
  102.9718    8.7733  -91.5285 O   0  0  0  0  0  0  0  0  0  0  0  0
  100.7841    2.4936  -93.8729 C   0  0  0  0  0  0  0  0  0  0  0  0
  101.5341    5.2720  -94.0029 O   0  0  0  0  0  0  0  0  0  0  0  0
  1 10  1  0
  1 13  1  0
  1 21  1  0
  2 17  2  0
  2 18  1  0
  3 21  2  0
  4  7  1  0
  4 18  2  0
  5 12  1  0
  5 16  1  0
  5 24  1  0
  6  8  1  0
  6 13  1  0
  6 23  2  0
  7  8  2  0
  8 17  1  0
  9 11  1  0
  9 19  1  0
 11 14  1  0
 11 15  1  0
 13 15  1  0
 14 17  1  0
 15 16  1  0
 16 20  1  0
 16 25  1  0
 20 24  1  0
 21 22  1  0
M  END
$$$$
