
     RDKit          3D

 31 34  0  0  0  0  0  0  0  0999 V2000
  100.1086    5.4042  -89.8311 C   0  0  0  0  0  0  0  0  0  0  0  0
  101.0222   10.2325  -91.2218 C   0  0  0  0  0  0  0  0  0  0  0  0
  103.4721    2.1425  -93.2422 C   0  0  0  0  0  0  0  0  0  0  0  0
  101.4450    2.4085  -94.5710 C   0  0  0  0  0  0  0  0  0  0  0  0
  105.1886    4.4651  -91.4780 S   0  0  0  0  0  0  0  0  0  0  0  0
  103.0652    9.2656  -91.8046 O   0  0  0  0  0  0  0  0  0  0  0  0
  103.0807    3.1685  -92.3704 C   0  0  0  0  0  0  0  0  0  0  0  0
   97.5061    5.5938  -90.8575 C   0  0  0  0  0  0  0  0  0  0  0  0
  106.0836    3.8601  -92.4819 O   0  0  0  0  0  0  0  0  0  0  0  0
   97.8223    6.1806  -89.4109 C   0  0  0  0  0  0  0  0  0  0  0  0
  101.9201    6.5479  -91.6125 N   0  0  0  0  0  0  0  0  0  0  0  0
  101.8368    3.8740  -92.6452 C   0  0  0  0  0  0  0  0  0  0  0  0
   99.9475    4.9354  -91.2718 C   0  0  0  0  0  0  0  0  0  0  0  0
  103.8219    7.2015  -90.3803 O   0  0  0  0  0  0  0  0  0  0  0  0
  101.0247    3.4100  -93.7074 C   0  0  0  0  0  0  0  0  0  0  0  0
  104.2058    5.7728  -92.0262 N   0  0  0  0  0  0  0  0  0  0  0  0
  101.3924    5.1543  -91.9125 C   0  0  0  0  0  0  0  0  0  0  0  0
  101.4433    5.3038  -89.2819 C   0  0  0  0  0  0  0  0  0  0  0  0
  101.6820    5.0426  -87.7702 C   0  0  0  0  0  0  0  0  0  0  0  0
   99.0161    8.9598  -91.0952 C   0  0  0  0  0  0  0  0  0  0  0  0
   99.6309   10.2021  -91.0024 C   0  0  0  0  0  0  0  0  0  0  0  0
  101.1203    7.7864  -91.4648 C   0  0  0  0  0  0  0  0  0  0  0  0
  103.9262    3.4045  -91.2408 O   0  0  0  0  0  0  0  0  0  0  0  0
  101.7699    9.0751  -91.4768 C   0  0  0  0  0  0  0  0  0  0  0  0
   98.8723    4.0487  -88.3223 O   0  0  0  0  0  0  0  0  0  0  0  0
  102.6823    1.7606  -94.3447 C   0  0  0  0  0  0  0  0  0  0  0  0
   98.9535    5.1318  -88.9505 C   0  0  0  0  0  0  0  0  0  0  0  0
  105.9597    4.9637  -90.3625 O   0  0  0  0  0  0  0  0  0  0  0  0
   99.7668    7.8325  -91.3555 C   0  0  0  0  0  0  0  0  0  0  0  0
   98.4365    4.4254  -91.3312 C   0  0  0  0  0  0  0  0  0  0  0  0
  103.3230    6.5864  -91.3085 C   0  0  0  0  0  0  0  0  0  0  0  0
  1 13  1  0
  1 18  1  0
  1 27  1  0
  2 21  1  0
  2 24  2  0
  3  7  2  0
  3 26  1  0
  4 15  1  0
  4 26  2  0
  5  9  1  0
  5 16  1  0
  5 23  1  0
  5 28  1  0
  6 24  1  0
  7 12  1  0
  7 23  1  0
  8 10  1  0
  8 30  1  0
 10 27  1  0
 11 17  1  0
 11 22  1  0
 11 31  1  0
 12 15  2  0
 12 17  1  0
 13 17  1  0
 13 30  1  0
 14 31  2  0
 16 31  1  0
 18 19  1  0
 20 21  2  0
 20 29  1  0
 22 24  1  0
 22 29  2  0
 25 27  2  0
M  END
$$$$
