
     RDKit          3D

 28 30  0  0  0  0  0  0  0  0999 V2000
  100.1666   10.1926  -91.2083 C   0  0  0  0  0  0  0  0  0  0  0  0
   99.0794    9.2768  -91.3048 C   0  0  0  0  0  0  0  0  0  0  0  0
  103.6754    3.6611  -92.5435 C   0  0  0  0  0  0  0  0  0  0  0  0
   98.9206    4.9099  -88.2152 C   0  0  0  0  0  0  0  0  0  0  0  0
   97.6147    4.4268  -88.3372 C   0  0  0  0  0  0  0  0  0  0  0  0
  103.1330    7.8408  -90.9263 N   0  0  0  0  0  0  0  0  0  0  0  0
  102.2616    5.4806  -91.6382 C   0  0  0  0  0  0  0  0  0  0  0  0
  105.6058    7.4176  -91.6112 C   0  0  0  0  0  0  0  0  0  0  0  0
  104.7537    9.7609  -91.5002 O   0  0  0  0  0  0  0  0  0  0  0  0
   99.8482    5.2336  -89.1118 C   0  0  0  0  0  0  0  0  0  0  0  0
  102.7663    1.8693  -93.8420 N   0  0  0  0  0  0  0  0  0  0  0  0
   99.3811    7.9187  -91.3481 C   0  0  0  0  0  0  0  0  0  0  0  0
   97.6168    4.3082  -90.8191 C   0  0  0  0  0  0  0  0  0  0  0  0
   99.8786    5.2892  -90.5082 C   0  0  0  0  0  0  0  0  0  0  0  0
  105.1035    2.0621  -93.5154 O   0  0  0  0  0  0  0  0  0  0  0  0
  102.4046    4.1837  -92.3955 C   0  0  0  0  0  0  0  0  0  0  0  0
  101.7682    8.3571  -91.0923 C   0  0  0  0  0  0  0  0  0  0  0  0
  100.9988    6.0222  -91.1427 C   0  0  0  0  0  0  0  0  0  0  0  0
  103.8611    2.5440  -93.2879 C   0  0  0  0  0  0  0  0  0  0  0  0
  100.6904    7.4639  -91.2133 C   0  0  0  0  0  0  0  0  0  0  0  0
   97.0224    4.1939  -89.5771 C   0  0  0  0  0  0  0  0  0  0  0  0
  101.4656    2.3454  -93.6571 C   0  0  0  0  0  0  0  0  0  0  0  0
  101.2994    3.5032  -92.9717 C   0  0  0  0  0  0  0  0  0  0  0  0
  104.8222    7.0362  -89.4842 O   0  0  0  0  0  0  0  0  0  0  0  0
  104.4576    7.3419  -90.6309 C   0  0  0  0  0  0  0  0  0  0  0  0
  105.8822    8.8895  -91.8256 C   0  0  0  0  0  0  0  0  0  0  0  0
   98.7785    4.8317  -91.2729 C   0  0  0  0  0  0  0  0  0  0  0  0
  101.4977    9.7640  -91.1047 C   0  0  0  0  0  0  0  0  0  0  0  0
  1  2  2  0
  1 28  1  0
  2 12  1  0
  3 16  2  0
  3 19  1  0
  4  5  1  0
  4 10  2  0
  5 21  2  0
  6 17  1  0
  6 25  1  0
  7 16  1  0
  7 18  1  0
  8 25  1  0
  8 26  1  0
  9 26  1  0
 10 14  1  0
 11 19  1  0
 11 22  1  0
 12 20  2  0
 13 21  1  0
 13 27  2  0
 14 18  1  0
 14 27  1  0
 15 19  2  0
 16 23  1  0
 17 20  1  0
 17 28  2  0
 18 20  1  0
 22 23  2  0
 24 25  2  0
M  END
$$$$
