
     RDKit          3D

 35 36  0  0  0  0  0  0  0  0999 V2000
  106.2602    6.8298  -91.0779 C   0  0  0  0  0  0  0  0  0  0  0  0
   98.5981    4.3954  -87.3407 O   0  0  0  0  0  0  0  0  0  0  0  0
  100.8452    5.9955  -91.6575 N   0  0  0  0  0  0  0  0  0  0  0  0
   97.1189    8.5247  -89.9705 C   0  0  0  0  0  0  0  0  0  0  0  0
  107.8135    8.6023  -92.7849 C   0  0  0  0  0  0  0  0  0  0  0  0
   99.2081    7.3038  -89.8885 C   0  0  0  0  0  0  0  0  0  0  0  0
   99.9635    5.2700  -92.7085 C   0  0  0  0  0  0  0  0  0  0  0  0
  106.2706    8.3121  -90.9916 C   0  0  0  0  0  0  0  0  0  0  0  0
  106.2139    4.1276  -91.6241 C   0  0  0  0  0  0  0  0  0  0  0  0
  104.7506    4.0850  -91.8547 C   0  0  0  0  0  0  0  0  0  0  0  0
  100.3832    3.0463  -87.5182 O   0  0  0  0  0  0  0  0  0  0  0  0
   99.8003    4.1619  -87.6855 C   0  0  0  0  0  0  0  0  0  0  0  0
  107.0779    4.9276  -92.3458 N   0  0  0  0  0  0  0  0  0  0  0  0
   97.7351    9.6254  -90.5138 N   0  0  0  0  0  0  0  0  0  0  0  0
  104.0988    1.7354  -94.1087 O   0  0  0  0  0  0  0  0  0  0  0  0
  101.1419    4.9434  -93.7228 C   0  0  0  0  0  0  0  0  0  0  0  0
  106.6229    3.4381  -90.6854 O   0  0  0  0  0  0  0  0  0  0  0  0
  103.4589    2.2573  -90.8526 O   0  0  0  0  0  0  0  0  0  0  0  0
  104.1357    2.7476  -91.9800 C   0  0  0  0  0  0  0  0  0  0  0  0
  101.2377    3.4649  -93.9515 C   0  0  0  0  0  0  0  0  0  0  0  0
   99.7089   10.9020  -91.2804 C   0  0  0  0  0  0  0  0  0  0  0  0
   99.8237    8.4239  -90.4963 C   0  0  0  0  0  0  0  0  0  0  0  0
  101.1606    8.4712  -90.8433 O   0  0  0  0  0  0  0  0  0  0  0  0
  107.2596    6.3090  -92.0981 C   0  0  0  0  0  0  0  0  0  0  0  0
  103.8064    0.8279  -90.5728 C   0  0  0  0  0  0  0  0  0  0  0  0
   99.0833    9.6395  -90.7550 C   0  0  0  0  0  0  0  0  0  0  0  0
   97.8166    7.3473  -89.6880 C   0  0  0  0  0  0  0  0  0  0  0  0
  103.4385    2.5141  -93.2369 C   0  0  0  0  0  0  0  0  0  0  0  0
  101.9553    2.3562  -93.1858 C   0  0  0  0  0  0  0  0  0  0  0  0
  100.5362    5.3518  -88.2060 C   0  0  0  0  0  0  0  0  0  0  0  0
  100.4930    5.2385  -90.4942 C   0  0  0  0  0  0  0  0  0  0  0  0
  100.6530    4.0105  -90.4857 O   0  0  0  0  0  0  0  0  0  0  0  0
  107.7400    8.7355  -91.2800 C   0  0  0  0  0  0  0  0  0  0  0  0
  107.6635    7.2074  -93.0470 N   0  0  0  0  0  0  0  0  0  0  0  0
   99.9337    6.0546  -89.4088 C   0  0  0  0  0  0  0  0  0  0  0  0
  1  8  1  0
  1 24  1  0
  2 12  2  0
  3  7  1  0
  3 31  1  0
  4 14  1  0
  4 27  2  0
  5 33  1  0
  5 34  1  0
  6 22  2  0
  6 27  1  0
  6 35  1  0
  7 16  1  0
  8 33  1  0
  9 10  1  0
  9 13  1  0
  9 17  2  0
 10 19  1  0
 11 12  1  0
 12 30  1  0
 13 24  2  3
 14 26  2  0
 15 28  1  0
 16 20  1  0
 18 19  1  0
 18 25  1  0
 19 28  1  0
 20 29  1  0
 21 26  1  0
 22 23  1  0
 22 26  1  0
 24 34  1  0
 28 29  1  0
 30 35  1  0
 31 32  2  0
 31 35  1  0
M  END
$$$$
