
     RDKit          3D

 15 16  0  0  0  0  0  0  0  0999 V2000
   -7.7860    3.2724  -30.9381 C   0  0  0  0  0  0  0  0  0  0  0  0
  -10.8986    5.7553  -26.6757 O   0  0  0  0  0  0  0  0  0  0  0  0
   -7.7415    4.3391  -29.8907 C   0  0  0  0  0  0  0  0  0  0  0  0
  -10.6157    3.5252  -28.2806 C   0  0  0  0  0  0  0  0  0  0  0  0
   -8.8123    4.2169  -29.0419 N   0  0  0  0  0  0  0  0  0  0  0  0
   -9.7189    5.5642  -27.1644 C   0  0  0  0  0  0  0  0  0  0  0  0
   -7.3198    3.4948  -33.4624 O   0  0  0  0  0  0  0  0  0  0  0  0
   -8.8332    6.6267  -27.5197 N   0  0  0  0  0  0  0  0  0  0  0  0
   -8.1820    1.3189  -32.6788 O   0  0  0  0  0  0  0  0  0  0  0  0
   -7.2796    5.4732  -30.1404 O   0  0  0  0  0  0  0  0  0  0  0  0
   -5.8597    1.9326  -32.1411 O   0  0  0  0  0  0  0  0  0  0  0  0
   -9.3967    3.1785  -31.1370 C   0  0  0  0  0  0  0  0  0  0  0  0
   -9.9374    3.3634  -29.6662 C   0  0  0  0  0  0  0  0  0  0  0  0
   -9.3693    4.2260  -27.7078 C   0  0  0  0  0  0  0  0  0  0  0  0
   -7.2524    2.4476  -32.3539 P   0  0  0  0  0  0  0  0  0  0  0  0
  1  3  1  0
  1 12  1  0
  1 15  1  0
  2  6  2  0
  3  5  1  0
  3 10  2  0
  4 13  1  0
  4 14  1  0
  5 13  1  0
  5 14  1  0
  6  8  1  0
  6 14  1  0
  7 15  1  0
  9 15  1  0
 11 15  1  0
 12 13  1  0
M  END
$$$$
