
     RDKit          3D

  9  8  0  0  0  0  0  0  0  0999 V2000
   -7.7285    3.4157  -30.3648 C   0  0  0  0  0  0  0  0  0  0  0  0
   -8.5454    4.6768  -30.3047 C   0  0  0  0  0  0  0  0  0  0  0  0
   -7.6132    3.5405  -33.1470 O   0  0  0  0  0  0  0  0  0  0  0  0
   -8.1373    6.3462  -27.7996 S   0  0  0  0  0  0  0  0  0  0  0  0
   -7.5637    2.5718  -31.9019 P   0  0  0  0  0  0  0  0  0  0  0  0
   -8.6104    5.2016  -28.8369 C   0  0  0  0  0  0  0  0  0  0  0  0
   -9.1186    4.0271  -27.9710 C   0  0  0  0  0  0  0  0  0  0  0  0
   -6.1245    1.9539  -31.9367 O   0  0  0  0  0  0  0  0  0  0  0  0
   -8.6298    1.4859  -32.0200 O   0  0  0  0  0  0  0  0  0  0  0  0
  1  2  1  0
  1  5  1  0
  2  6  1  0
  3  5  1  0
  4  6  2  0
  5  8  1  0
  5  9  1  0
  6  7  1  0
M  END
$$$$
