
     RDKit          3D

 13 13  0  0  0  0  0  0  0  0999 V2000
   -6.0490    2.1650  -31.8676 O   0  0  0  0  0  0  0  0  0  0  0  0
   -8.0904    6.6813  -28.3649 O   0  0  0  0  0  0  0  0  0  0  0  0
   -8.5040    5.9579  -31.4085 O   0  0  0  0  0  0  0  0  0  0  0  0
   -8.2692    3.3890  -30.7970 C   0  0  0  0  0  0  0  0  0  0  0  0
   -9.1274    4.6947  -30.9998 C   0  0  0  0  0  0  0  0  0  0  0  0
   -8.7161    5.4342  -28.5130 C   0  0  0  0  0  0  0  0  0  0  0  0
   -8.3390    1.2059  -32.0976 O   0  0  0  0  0  0  0  0  0  0  0  0
  -10.2624    3.6771  -29.1337 O   0  0  0  0  0  0  0  0  0  0  0  0
   -7.6410    3.3275  -33.3064 O   0  0  0  0  0  0  0  0  0  0  0  0
   -7.6495    4.3228  -28.3712 C   0  0  0  0  0  0  0  0  0  0  0  0
   -7.5690    2.4810  -32.0201 P   0  0  0  0  0  0  0  0  0  0  0  0
   -9.7506    4.9881  -29.5764 C   0  0  0  0  0  0  0  0  0  0  0  0
   -7.3228    3.6370  -29.6649 C   0  0  0  0  0  0  0  0  0  0  0  0
  1 11  1  0
  2  6  1  0
  3  5  1  0
  4  5  1  0
  4 11  1  0
  4 13  1  0
  5 12  1  0
  6 10  1  0
  6 12  1  0
  7 11  1  0
  8 12  1  0
  9 11  1  0
 10 13  1  0
M  END
$$$$
