
     RDKit          3D

 24 28  0  0  0  0  0  0  0  0999 V2000
    2.9302   18.5591  -33.0341 C   0  0  0  0  0  0  0  0  0  0  0  0
    3.2559   20.4437  -34.4995 C   0  0  0  0  0  0  0  0  0  0  0  0
    3.8604   17.8455  -33.7677 C   0  0  0  0  0  0  0  0  0  0  0  0
    4.5225   18.4168  -34.8354 N   0  0  0  0  0  0  0  0  0  0  0  0
    0.2147   22.0553  -31.8097 C   0  0  0  0  0  0  0  0  0  0  0  0
    1.3759   19.4907  -31.5289 C   0  0  0  0  0  0  0  0  0  0  0  0
   -2.5009   23.2913  -29.0849 C   0  0  0  0  0  0  0  0  0  0  0  0
   -0.0206   21.2470  -30.6992 C   0  0  0  0  0  0  0  0  0  0  0  0
   -1.2801   23.6055  -30.9588 C   0  0  0  0  0  0  0  0  0  0  0  0
    2.6756   19.8346  -33.4078 C   0  0  0  0  0  0  0  0  0  0  0  0
   -1.5655   22.7472  -29.9265 C   0  0  0  0  0  0  0  0  0  0  0  0
   -2.9035   27.2518  -30.1594 N   0  0  0  0  0  0  0  0  0  0  0  0
   -1.8697   25.6201  -31.6401 N   0  0  0  0  0  0  0  0  0  0  0  0
    0.5119   19.9442  -30.5739 C   0  0  0  0  0  0  0  0  0  0  0  0
    1.1450   21.6488  -32.7080 N   0  0  0  0  0  0  0  0  0  0  0  0
   -3.8555   26.4293  -30.0796 C   0  0  0  0  0  0  0  0  0  0  0  0
   -2.8134   24.5271  -29.4942 C   0  0  0  0  0  0  0  0  0  0  0  0
    4.1778   19.6882  -35.1942 C   0  0  0  0  0  0  0  0  0  0  0  0
   -3.8573   25.3623  -29.1959 C   0  0  0  0  0  0  0  0  0  0  0  0
   -1.0685   21.5044  -29.8552 C   0  0  0  0  0  0  0  0  0  0  0  0
   -0.4983   23.2648  -32.0325 C   0  0  0  0  0  0  0  0  0  0  0  0
   -2.0789   24.7741  -30.7129 C   0  0  0  0  0  0  0  0  0  0  0  0
    1.7308   20.4845  -32.5246 C   0  0  0  0  0  0  0  0  0  0  0  0
    2.0939   18.2796  -31.8929 N   0  0  0  0  0  0  0  0  0  0  0  0
  1  3  1  0
  1 10  2  0
  1 24  1  0
  2 10  1  0
  2 18  1  0
  3  4  1  0
  4 18  2  0
  5  8  1  0
  5 15  2  0
  5 21  1  0
  6 14  1  0
  6 23  2  0
  6 24  1  0
  7 11  1  0
  7 17  1  0
  8 14  2  0
  8 20  1  0
  9 11  1  0
  9 21  1  0
  9 22  1  0
 10 23  1  0
 11 20  2  0
 12 16  2  0
 13 22  2  0
 15 23  1  0
 16 19  1  0
 17 19  1  0
 17 22  1  0
M  END
$$$$
