
     RDKit          3D

 25 27  0  0  0  0  0  0  0  0999 V2000
    2.1793   18.9398  -32.4589 C   0  0  0  0  0  0  0  0  0  0  0  0
   -2.9696   24.1797  -29.6895 C   0  0  0  0  0  0  0  0  0  0  0  0
   -1.4139   20.1124  -31.4515 C   0  0  0  0  0  0  0  0  0  0  0  0
   -3.4253   25.2549  -28.7359 C   0  0  0  0  0  0  0  0  0  0  0  0
    2.3459   20.2904  -33.0264 C   0  0  0  0  0  0  0  0  0  0  0  0
   -3.9861   24.0481  -30.6309 C   0  0  0  0  0  0  0  0  0  0  0  0
   -1.9138   18.7179  -31.0667 C   0  0  0  0  0  0  0  0  0  0  0  0
   -2.3505   26.8333  -30.2584 C   0  0  0  0  0  0  0  0  0  0  0  0
   -0.4707   23.4355  -32.3054 C   0  0  0  0  0  0  0  0  0  0  0  0
    0.2318   21.5842  -30.5687 O   0  0  0  0  0  0  0  0  0  0  0  0
   -4.5275   27.2264  -29.5349 O   0  0  0  0  0  0  0  0  0  0  0  0
    3.5383   18.0464  -34.3759 N   0  0  0  0  0  0  0  0  0  0  0  0
   -1.2193   22.3686  -28.8782 O   0  0  0  0  0  0  0  0  0  0  0  0
   -2.1633   21.1652  -30.7106 C   0  0  0  0  0  0  0  0  0  0  0  0
   -1.8773   25.7623  -31.1375 C   0  0  0  0  0  0  0  0  0  0  0  0
    3.2803   20.4462  -34.1176 C   0  0  0  0  0  0  0  0  0  0  0  0
   -3.4817   26.5295  -29.4151 C   0  0  0  0  0  0  0  0  0  0  0  0
   -1.1419   22.1818  -30.2460 C   0  0  0  0  0  0  0  0  0  0  0  0
    4.0371   19.3117  -34.5646 N   0  0  0  0  0  0  0  0  0  0  0  0
    1.9070   18.6879  -31.0054 C   0  0  0  0  0  0  0  0  0  0  0  0
   -1.2786   23.3779  -31.0903 C   0  0  0  0  0  0  0  0  0  0  0  0
    0.6137   19.1646  -30.5689 O   0  0  0  0  0  0  0  0  0  0  0  0
   -1.7229   24.5309  -30.3733 C   0  0  0  0  0  0  0  0  0  0  0  0
    2.7324   17.8037  -33.2173 C   0  0  0  0  0  0  0  0  0  0  0  0
    0.0540   20.3171  -31.1418 C   0  0  0  0  0  0  0  0  0  0  0  0
  1  5  1  0
  1 20  1  0
  1 24  1  0
  2  4  1  0
  2  6  1  0
  2 23  1  0
  3  7  1  0
  3 14  1  0
  3 25  1  0
  4 17  1  0
  5 16  2  0
  8 15  1  0
  8 17  1  0
  9 21  1  0
 10 18  1  0
 10 25  1  0
 11 17  2  0
 12 19  1  0
 12 24  1  0
 13 18  1  0
 14 18  1  0
 15 23  1  0
 16 19  1  0
 18 21  1  0
 20 22  1  0
 21 23  1  0
 22 25  1  0
M  END
$$$$
