
     RDKit          3D

 33 38  0  0  0  0  0  0  0  0999 V2000
    3.1217   20.8173  -35.3594 C   0  0  0  0  0  0  0  0  0  0  0  0
   -3.5351   23.8474  -28.0810 C   0  0  0  0  0  0  0  0  0  0  0  0
   -1.2872   23.9779  -31.0663 C   0  0  0  0  0  0  0  0  0  0  0  0
   -0.4653   18.6417  -31.0235 C   0  0  0  0  0  0  0  0  0  0  0  0
   -1.6456   22.1164  -29.4299 C   0  0  0  0  0  0  0  0  0  0  0  0
    1.0565   21.8071  -33.0204 C   0  0  0  0  0  0  0  0  0  0  0  0
   -2.3760   20.1170  -30.6343 O   0  0  0  0  0  0  0  0  0  0  0  0
   -2.0267   27.4793  -30.5362 O   0  0  0  0  0  0  0  0  0  0  0  0
    0.1203   23.9034  -33.0224 N   0  0  0  0  0  0  0  0  0  0  0  0
    3.9629   20.2060  -36.3309 C   0  0  0  0  0  0  0  0  0  0  0  0
    4.3332   18.3524  -34.9162 C   0  0  0  0  0  0  0  0  0  0  0  0
   -0.9855   25.9959  -32.4170 O   0  0  0  0  0  0  0  0  0  0  0  0
    1.5858   19.7451  -32.1889 C   0  0  0  0  0  0  0  0  0  0  0  0
   -1.9098   23.4986  -29.8933 C   0  0  0  0  0  0  0  0  0  0  0  0
   -2.7316   24.3571  -29.1199 C   0  0  0  0  0  0  0  0  0  0  0  0
   -1.4338   25.3584  -31.3463 C   0  0  0  0  0  0  0  0  0  0  0  0
   -0.2747   20.9910  -31.1872 C   0  0  0  0  0  0  0  0  0  0  0  0
   -2.8274   25.6694  -29.3627 C   0  0  0  0  0  0  0  0  0  0  0  0
    4.8998   17.1558  -34.6279 N   0  0  0  0  0  0  0  0  0  0  0  0
    2.8050   20.1723  -34.2065 C   0  0  0  0  0  0  0  0  0  0  0  0
   -1.1487   22.0869  -28.1599 O   0  0  0  0  0  0  0  0  0  0  0  0
    0.1122   22.0300  -32.0271 C   0  0  0  0  0  0  0  0  0  0  0  0
    3.3195   18.3393  -32.7750 N   0  0  0  0  0  0  0  0  0  0  0  0
   -0.4320   23.3226  -32.0114 C   0  0  0  0  0  0  0  0  0  0  0  0
   -2.7092   17.7881  -30.9564 O   0  0  0  0  0  0  0  0  0  0  0  0
   -1.3362   20.9830  -30.2296 C   0  0  0  0  0  0  0  0  0  0  0  0
   -2.1144   26.1855  -30.4171 C   0  0  0  0  0  0  0  0  0  0  0  0
    0.3928   19.7508  -31.3959 C   0  0  0  0  0  0  0  0  0  0  0  0
    1.8613   20.6145  -33.2238 C   0  0  0  0  0  0  0  0  0  0  0  0
    3.4737   18.9593  -33.9462 C   0  0  0  0  0  0  0  0  0  0  0  0
    4.5607   18.9596  -36.1304 C   0  0  0  0  0  0  0  0  0  0  0  0
   -1.9176   18.8427  -31.0868 C   0  0  0  0  0  0  0  0  0  0  0  0
    2.4524   18.7433  -31.9208 N   0  0  0  0  0  0  0  0  0  0  0  0
  1 10  1  0
  1 20  2  0
  2 15  1  0
  3 14  2  0
  3 16  1  0
  3 24  1  0
  4 28  1  0
  4 32  1  0
  5 14  1  0
  5 21  1  0
  5 26  1  0
  6 22  1  0
  6 29  2  0
  7 26  1  0
  7 32  1  0
  8 27  1  0
  9 24  2  0
 10 31  1  0
 11 19  1  0
 11 30  1  0
 11 31  2  0
 12 16  1  0
 13 28  1  0
 13 29  1  0
 13 33  1  0
 14 15  1  0
 15 18  2  0
 16 27  2  0
 17 22  2  0
 17 26  1  0
 17 28  1  0
 18 27  1  0
 20 29  1  0
 20 30  1  0
 22 24  1  0
 23 30  2  0
 23 33  1  0
 25 32  2  0
M  END
$$$$
