
     RDKit          3D

 30 35  0  0  0  0  0  0  0  0999 V2000
    0.6626   22.6392  -32.1052 C   0  0  0  0  0  0  0  0  0  0  0  0
   -0.8802   25.0984  -32.4838 C   0  0  0  0  0  0  0  0  0  0  0  0
   -0.5298   22.9059  -31.3261 C   0  0  0  0  0  0  0  0  0  0  0  0
    4.4635   17.3388  -35.4767 C   0  0  0  0  0  0  0  0  0  0  0  0
    1.8621   19.1630  -32.3482 N   0  0  0  0  0  0  0  0  0  0  0  0
   -0.8934   21.9198  -30.3952 C   0  0  0  0  0  0  0  0  0  0  0  0
   -4.1426   26.2402  -28.1427 C   0  0  0  0  0  0  0  0  0  0  0  0
   -0.9793   20.5994  -30.7208 C   0  0  0  0  0  0  0  0  0  0  0  0
   -2.8087   25.6404  -30.0709 C   0  0  0  0  0  0  0  0  0  0  0  0
   -1.9245   24.5607  -30.2768 C   0  0  0  0  0  0  0  0  0  0  0  0
   -1.9076   19.5942  -30.5035 C   0  0  0  0  0  0  0  0  0  0  0  0
   -2.4804   23.3485  -29.5674 C   0  0  0  0  0  0  0  0  0  0  0  0
   -3.3507   23.9444  -28.5132 C   0  0  0  0  0  0  0  0  0  0  0  0
   -1.3217   22.5116  -29.1231 C   0  0  0  0  0  0  0  0  0  0  0  0
   -3.8645   25.2304  -29.1130 C   0  0  0  0  0  0  0  0  0  0  0  0
    4.1774   19.8605  -35.2666 C   0  0  0  0  0  0  0  0  0  0  0  0
    2.7024   20.9076  -33.5478 N   0  0  0  0  0  0  0  0  0  0  0  0
   -0.1619   18.0135  -31.0931 C   0  0  0  0  0  0  0  0  0  0  0  0
    5.2877   18.7941  -37.2986 C   0  0  0  0  0  0  0  0  0  0  0  0
   -2.6072   26.7728  -30.4068 O   0  0  0  0  0  0  0  0  0  0  0  0
    0.9653   21.2730  -31.9780 C   0  0  0  0  0  0  0  0  0  0  0  0
   -3.3766   22.6637  -30.3023 O   0  0  0  0  0  0  0  0  0  0  0  0
   -1.2175   24.1166  -31.4287 C   0  0  0  0  0  0  0  0  0  0  0  0
    1.8941   20.5361  -32.6179 N   0  0  0  0  0  0  0  0  0  0  0  0
    3.3187   19.7954  -34.0012 C   0  0  0  0  0  0  0  0  0  0  0  0
    0.6327   19.0192  -31.5237 C   0  0  0  0  0  0  0  0  0  0  0  0
   -1.4593   18.2879  -30.6629 C   0  0  0  0  0  0  0  0  0  0  0  0
    4.4250   18.6892  -36.0487 C   0  0  0  0  0  0  0  0  0  0  0  0
    0.1474   20.3217  -31.3325 C   0  0  0  0  0  0  0  0  0  0  0  0
    2.9177   18.7520  -33.2102 N   0  0  0  0  0  0  0  0  0  0  0  0
  1  3  1  0
  1 21  1  0
  2 23  1  0
  3  6  1  0
  3 23  1  0
  4 28  1  0
  5 24  1  0
  5 26  1  0
  5 30  1  0
  6  8  1  0
  6 14  1  0
  7 15  1  0
  8 11  1  0
  8 29  2  0
  9 10  1  0
  9 15  1  0
  9 20  2  0
 10 12  1  0
 10 23  1  0
 11 27  2  0
 12 13  1  0
 12 14  1  0
 12 22  1  0
 13 15  1  0
 16 25  1  0
 16 28  1  0
 17 24  1  0
 17 25  2  0
 18 26  2  0
 18 27  1  0
 19 28  1  0
 21 24  1  0
 21 29  1  0
 25 30  1  0
 26 29  1  0
M  END
$$$$
