
     RDKit          3D

 27 31  0  0  0  0  0  0  0  0999 V2000
   -2.2215   24.1876  -29.8561 C   0  0  0  0  0  0  0  0  0  0  0  0
   -2.5061   25.4445  -30.5080 C   0  0  0  0  0  0  0  0  0  0  0  0
    4.7027   19.1066  -35.2788 C   0  0  0  0  0  0  0  0  0  0  0  0
    2.7494   18.8717  -33.3788 C   0  0  0  0  0  0  0  0  0  0  0  0
    1.8421   18.7414  -32.2587 C   0  0  0  0  0  0  0  0  0  0  0  0
   -0.9266   24.6563  -32.2144 C   0  0  0  0  0  0  0  0  0  0  0  0
    3.1059   20.2281  -33.6865 C   0  0  0  0  0  0  0  0  0  0  0  0
   -2.4359   26.6841  -28.5529 O   0  0  0  0  0  0  0  0  0  0  0  0
    1.2228   21.2256  -32.5336 C   0  0  0  0  0  0  0  0  0  0  0  0
   -1.6012   25.7681  -31.6207 C   0  0  0  0  0  0  0  0  0  0  0  0
   -0.5894   21.0874  -31.1088 C   0  0  0  0  0  0  0  0  0  0  0  0
   -1.8157   22.9786  -30.6254 C   0  0  0  0  0  0  0  0  0  0  0  0
   -3.8403   27.3442  -30.1624 O   0  0  0  0  0  0  0  0  0  0  0  0
   -1.3689   21.7116  -30.0052 C   0  0  0  0  0  0  0  0  0  0  0  0
    2.9943   17.6023  -34.1506 C   0  0  0  0  0  0  0  0  0  0  0  0
   -3.4739   24.4735  -30.4870 C   0  0  0  0  0  0  0  0  0  0  0  0
    1.2038   19.9448  -31.8706 C   0  0  0  0  0  0  0  0  0  0  0  0
    0.2463   19.9314  -30.8134 C   0  0  0  0  0  0  0  0  0  0  0  0
    4.2422   20.3567  -34.6085 C   0  0  0  0  0  0  0  0  0  0  0  0
    4.1787   17.7144  -35.0648 C   0  0  0  0  0  0  0  0  0  0  0  0
    0.0682   22.1240  -31.9289 C   0  0  0  0  0  0  0  0  0  0  0  0
   -2.3672   20.6957  -29.8252 O   0  0  0  0  0  0  0  0  0  0  0  0
   -0.9833   23.2934  -31.7670 C   0  0  0  0  0  0  0  0  0  0  0  0
   -2.2466   19.5830  -30.7259 C   0  0  0  0  0  0  0  0  0  0  0  0
    2.3371   21.3555  -33.3489 N   0  0  0  0  0  0  0  0  0  0  0  0
   -2.9558   26.6045  -29.6937 C   0  0  0  0  0  0  0  0  0  0  0  0
   -0.6206   22.0355  -28.9189 O   0  0  0  0  0  0  0  0  0  0  0  0
  1 12  1  0
  1 16  1  0
  2 10  1  0
  2 16  1  0
  2 26  1  0
  3 19  2  0
  3 20  1  0
  4  5  1  0
  4  7  1  0
  4 15  1  0
  5 17  1  0
  6 10  2  0
  6 23  1  0
  7 19  1  0
  7 25  1  0
  8 26  2  0
  9 17  1  0
  9 21  1  0
  9 25  2  0
 11 14  1  0
 11 18  1  0
 11 21  1  0
 12 14  1  0
 12 23  1  0
 13 26  1  0
 14 22  1  0
 14 27  1  0
 15 20  1  0
 17 18  1  0
 21 23  1  0
 22 24  1  0
M  END
$$$$
