
     RDKit          3D

 28 30  0  0  0  0  0  0  0  0999 V2000
  105.4715    8.5679  -91.1863 C   0  0  0  0  0  0  0  0  0  0  0  0
   98.6948    4.8545  -91.0087 O   0  0  0  0  0  0  0  0  0  0  0  0
  103.0981    6.7396  -91.5861 N   0  0  0  0  0  0  0  0  0  0  0  0
  104.3157    6.3606  -91.0619 C   0  0  0  0  0  0  0  0  0  0  0  0
  103.2187    4.4794  -92.2855 C   0  0  0  0  0  0  0  0  0  0  0  0
  105.4430    2.6106  -91.8839 O   0  0  0  0  0  0  0  0  0  0  0  0
  102.4266    1.6368  -94.4003 C   0  0  0  0  0  0  0  0  0  0  0  0
  104.7668    1.5087  -93.7603 C   0  0  0  0  0  0  0  0  0  0  0  0
  101.0072    7.3557  -90.7115 C   0  0  0  0  0  0  0  0  0  0  0  0
  106.1911    9.1058  -90.3305 O   0  0  0  0  0  0  0  0  0  0  0  0
   99.7093    7.0694  -90.3713 C   0  0  0  0  0  0  0  0  0  0  0  0
  101.4711    8.6222  -91.0502 C   0  0  0  0  0  0  0  0  0  0  0  0
  102.2086    2.6416  -93.5078 C   0  0  0  0  0  0  0  0  0  0  0  0
  104.4910    2.5062  -92.8105 C   0  0  0  0  0  0  0  0  0  0  0  0
  103.2836    3.2141  -92.8362 C   0  0  0  0  0  0  0  0  0  0  0  0
  101.9705    6.1459  -90.7520 C   0  0  0  0  0  0  0  0  0  0  0  0
  105.5565    7.0846  -91.3280 C   0  0  0  0  0  0  0  0  0  0  0  0
  100.5958    9.6897  -91.1378 C   0  0  0  0  0  0  0  0  0  0  0  0
  104.7223    9.2383  -92.0101 O   0  0  0  0  0  0  0  0  0  0  0  0
   99.2411    9.4377  -90.8994 C   0  0  0  0  0  0  0  0  0  0  0  0
  101.0794    4.9115  -90.0596 C   0  0  0  0  0  0  0  0  0  0  0  0
   99.4959    5.5157  -89.9416 C   0  0  0  0  0  0  0  0  0  0  0  0
   98.0905   10.6481  -91.1908 Cl  0  0  0  0  0  0  0  0  0  0  0  0
   99.0087    4.8134  -88.5701 C   0  0  0  0  0  0  0  0  0  0  0  0
  103.7017    1.0869  -94.5493 C   0  0  0  0  0  0  0  0  0  0  0  0
   98.7928    8.1814  -90.4676 C   0  0  0  0  0  0  0  0  0  0  0  0
  104.3473    4.9041  -91.3609 C   0  0  0  0  0  0  0  0  0  0  0  0
  100.8294    3.1033  -93.2191 C   0  0  0  0  0  0  0  0  0  0  0  0
  1 10  2  0
  1 17  1  0
  1 19  1  0
  2 22  1  0
  3  4  1  0
  3 16  1  0
  4 17  1  0
  4 27  1  0
  5 15  1  0
  5 27  1  0
  6 14  1  0
  7 13  2  0
  7 25  1  0
  8 14  2  0
  8 25  1  0
  9 11  2  0
  9 12  1  0
  9 16  1  0
 11 22  1  0
 11 26  1  0
 12 18  2  0
 13 15  1  0
 13 28  1  0
 14 15  1  0
 16 21  1  0
 18 20  1  0
 20 23  1  0
 20 26  2  0
 21 22  1  0
 22 24  1  0
M  END
$$$$
