
     RDKit          3D

 26 28  0  0  0  0  0  0  0  0999 V2000
  106.6029    3.9336  -91.8500 N   0  0  0  0  0  0  0  0  0  0  0  0
  101.1877    6.2656  -91.7529 C   0  0  0  0  0  0  0  0  0  0  0  0
  103.1942    4.8747  -92.3689 N   0  0  0  0  0  0  0  0  0  0  0  0
  104.7083    3.0600  -92.5336 N   0  0  0  0  0  0  0  0  0  0  0  0
   98.2868    9.7177  -90.9466 C   0  0  0  0  0  0  0  0  0  0  0  0
  107.1651    6.4338  -90.3992 O   0  0  0  0  0  0  0  0  0  0  0  0
  101.9421    4.1574  -92.3282 C   0  0  0  0  0  0  0  0  0  0  0  0
   98.8355    6.1132  -90.2912 N   0  0  0  0  0  0  0  0  0  0  0  0
  104.6518    6.3684  -89.8024 O   0  0  0  0  0  0  0  0  0  0  0  0
   99.3783    4.3791  -88.7097 C   0  0  0  0  0  0  0  0  0  0  0  0
  105.6206    4.8545  -91.6756 C   0  0  0  0  0  0  0  0  0  0  0  0
  100.7211    9.8904  -91.3019 C   0  0  0  0  0  0  0  0  0  0  0  0
   98.2144    8.3469  -90.7702 C   0  0  0  0  0  0  0  0  0  0  0  0
   99.8766    5.1262  -89.9744 C   0  0  0  0  0  0  0  0  0  0  0  0
  105.7150    6.3620  -90.8919 S   0  0  0  0  0  0  0  0  0  0  0  0
  104.4202    4.3283  -92.1684 C   0  0  0  0  0  0  0  0  0  0  0  0
  106.0204    2.8175  -92.3758 N   0  0  0  0  0  0  0  0  0  0  0  0
  100.9839    4.8969  -91.1481 C   0  0  0  0  0  0  0  0  0  0  0  0
  101.2259    8.6502  -91.3556 C   0  0  0  0  0  0  0  0  0  0  0  0
   98.2592    4.7290  -88.1757 O   0  0  0  0  0  0  0  0  0  0  0  0
  100.5335    7.4619  -91.2632 C   0  0  0  0  0  0  0  0  0  0  0  0
  100.1111    3.4809  -88.2364 O   0  0  0  0  0  0  0  0  0  0  0  0
   99.1869    7.3781  -90.7814 C   0  0  0  0  0  0  0  0  0  0  0  0
  105.4475    7.4699  -91.8336 O   0  0  0  0  0  0  0  0  0  0  0  0
   99.4595   10.4215  -91.1849 C   0  0  0  0  0  0  0  0  0  0  0  0
  101.1870    4.1977  -93.5406 O   0  0  0  0  0  0  0  0  0  0  0  0
  1 11  1  0
  1 17  1  0
  2 18  2  0
  2 21  1  0
  3  7  1  0
  3 16  1  0
  4 16  1  0
  4 17  1  0
  5 13  1  0
  5 25  2  0
  6 15  1  0
  7 18  1  0
  7 26  1  0
  8 14  1  0
  8 23  1  0
  9 15  1  0
 10 14  1  0
 10 20  2  0
 10 22  1  0
 11 15  1  0
 11 16  2  0
 12 19  2  0
 12 25  1  0
 13 23  2  0
 14 18  1  0
 15 24  1  0
 19 21  1  0
 21 23  1  0
M  END
$$$$
