
     RDKit          3D

 25 27  0  0  0  0  0  0  0  0999 V2000
   16.1485   33.7162   11.0747 C   0  0  0  0  0  0  0  0  0  0  0  0
   10.5743   33.2940   16.6678 C   0  0  0  0  0  0  0  0  0  0  0  0
   17.2230   33.7189   11.9045 O   0  0  0  0  0  0  0  0  0  0  0  0
   17.2830   36.4895   13.7458 O   0  0  0  0  0  0  0  0  0  0  0  0
   12.3148   32.4767   15.3044 N   0  0  0  0  0  0  0  0  0  0  0  0
   12.1530   37.2914   16.7127 C   0  0  0  0  0  0  0  0  0  0  0  0
   15.2090   34.9778   13.1108 C   0  0  0  0  0  0  0  0  0  0  0  0
   10.0130   34.3622   17.2463 N   0  0  0  0  0  0  0  0  0  0  0  0
   10.8164   31.0587   16.1904 C   0  0  0  0  0  0  0  0  0  0  0  0
   15.0525   34.6686   10.7222 C   0  0  0  0  0  0  0  0  0  0  0  0
   11.8093   33.5094   16.0098 C   0  0  0  0  0  0  0  0  0  0  0  0
   10.1178   32.0505   16.6341 N   0  0  0  0  0  0  0  0  0  0  0  0
   15.0328   35.9973   14.2146 C   0  0  0  0  0  0  0  0  0  0  0  0
   12.3721   34.7811   16.1285 C   0  0  0  0  0  0  0  0  0  0  0  0
   14.3127   35.2408   11.9512 C   0  0  0  0  0  0  0  0  0  0  0  0
   13.3722   37.5586   15.9308 C   0  0  0  0  0  0  0  0  0  0  0  0
   15.4426   33.5931   13.4391 C   0  0  0  0  0  0  0  0  0  0  0  0
   14.8991   32.8439   14.4476 O   0  0  0  0  0  0  0  0  0  0  0  0
   10.5336   35.5607   17.2989 C   0  0  0  0  0  0  0  0  0  0  0  0
   16.1584   37.0086   14.1869 C   0  0  0  0  0  0  0  0  0  0  0  0
   15.9800   32.8061   12.2592 C   0  0  0  0  0  0  0  0  0  0  0  0
   11.7507   35.8907   16.6743 C   0  0  0  0  0  0  0  0  0  0  0  0
   11.9073   31.2658   15.3698 C   0  0  0  0  0  0  0  0  0  0  0  0
   13.8431   36.4630   15.0444 C   0  0  0  0  0  0  0  0  0  0  0  0
   15.9747   38.2117   14.5360 O   0  0  0  0  0  0  0  0  0  0  0  0
  1  3  1  0
  1 10  1  0
  1 21  1  0
  2  8  1  0
  2 11  1  0
  2 12  2  0
  4 20  2  0
  5 11  1  0
  5 23  2  0
  6 16  1  0
  6 22  1  0
  7 13  1  0
  7 15  1  0
  7 17  1  0
  8 19  2  0
  9 12  1  0
  9 23  1  0
 10 15  1  0
 11 14  2  0
 13 20  1  0
 13 24  1  0
 14 22  1  0
 16 24  2  3
 17 18  1  0
 17 21  1  0
 19 22  1  0
 20 25  1  0
M  END
$$$$
