
     RDKit          3D

 12 12  0  0  0  0  0  0  0  0999 V2000
   12.7545   32.9541   14.2993 C   0  0  0  0  0  0  0  0  0  0  0  0
   11.5515   34.2227   16.4530 C   0  0  0  0  0  0  0  0  0  0  0  0
   11.1765   32.9264   16.1078 C   0  0  0  0  0  0  0  0  0  0  0  0
   13.0645   34.2808   14.5644 C   0  0  0  0  0  0  0  0  0  0  0  0
   13.8785   34.9454   13.6551 O   0  0  0  0  0  0  0  0  0  0  0  0
   10.1483   32.3590   16.7424 O   0  0  0  0  0  0  0  0  0  0  0  0
   13.6452   34.7293   12.2785 C   0  0  0  0  0  0  0  0  0  0  0  0
   12.4848   34.9270   15.7053 C   0  0  0  0  0  0  0  0  0  0  0  0
   12.4643   36.7883   17.2172 O   0  0  0  0  0  0  0  0  0  0  0  0
   13.5770   37.0805   15.2583 O   0  0  0  0  0  0  0  0  0  0  0  0
   11.8475   32.2669   15.0840 C   0  0  0  0  0  0  0  0  0  0  0  0
   12.8781   36.2981   16.0672 C   0  0  0  0  0  0  0  0  0  0  0  0
  1  4  1  0
  1 11  2  0
  2  3  2  0
  2  8  1  0
  3  6  1  0
  3 11  1  0
  4  5  1  0
  4  8  2  0
  5  7  1  0
  8 12  1  0
  9 12  2  0
 10 12  1  0
M  END
$$$$
