
     RDKit          3D

 11 11  0  0  0  0  0  0  0  0999 V2000
   12.6311   36.5825   15.0962 N   0  0  0  0  0  0  0  0  0  0  0  0
   11.5979   34.8984   16.3761 C   0  0  0  0  0  0  0  0  0  0  0  0
   12.4623   35.2994   15.3194 C   0  0  0  0  0  0  0  0  0  0  0  0
    9.7746   33.6609   17.3824 O   0  0  0  0  0  0  0  0  0  0  0  0
   11.5580   32.4902   16.4164 C   0  0  0  0  0  0  0  0  0  0  0  0
   13.3248   33.1173   14.7663 N   0  0  0  0  0  0  0  0  0  0  0  0
   13.1297   34.4005   14.4099 C   0  0  0  0  0  0  0  0  0  0  0  0
   12.8425   32.5661   15.8762 C   0  0  0  0  0  0  0  0  0  0  0  0
   10.9298   33.7558   16.7438 C   0  0  0  0  0  0  0  0  0  0  0  0
   13.3750   34.7874   13.0868 C   0  0  0  0  0  0  0  0  0  0  0  0
   13.4109   35.9512   12.5628 N   0  0  0  0  0  0  0  0  0  0  0  0
  1  3  2  0
  2  3  1  0
  2  9  1  0
  3  7  1  0
  4  9  1  0
  5  8  1  0
  5  9  2  0
  6  7  2  0
  6  8  1  0
  7 10  1  0
 10 11  2  0
M  END
$$$$
