
     RDKit          3D

 65 69  0  0  0  0  0  0  0  0999 V2000
   97.2457    4.3225  -89.4789 C   0  0  0  0  0  0  0  0  0  0  0  0
   99.4939    5.4499  -92.9341 C   0  0  0  0  0  0  0  0  0  0  0  0
  103.0352    5.8960  -89.3874 C   0  0  0  0  0  0  0  0  0  0  0  0
   99.9157   10.5588  -91.2747 C   0  0  0  0  0  0  0  0  0  0  0  0
   97.2454    5.5633  -91.6853 C   0  0  0  0  0  0  0  0  0  0  0  0
   97.9914    4.4421  -87.1020 C   0  0  0  0  0  0  0  0  0  0  0  0
   98.3068    3.0077  -86.8282 C   0  0  0  0  0  0  0  0  0  0  0  0
   99.1450    4.6726  -84.9717 C   0  0  0  0  0  0  0  0  0  0  0  0
  104.4324    3.7295  -91.5689 C   0  0  0  0  0  0  0  0  0  0  0  0
  102.1507    3.0419  -94.1633 C   0  0  0  0  0  0  0  0  0  0  0  0
  103.5045    5.3226  -87.1158 O   0  0  0  0  0  0  0  0  0  0  0  0
   98.6706    4.3331  -89.7111 C   0  0  0  0  0  0  0  0  0  0  0  0
   97.3647    9.9680  -90.3645 C   0  0  0  0  0  0  0  0  0  0  0  0
  104.3725    5.4198  -89.9259 C   0  0  0  0  0  0  0  0  0  0  0  0
   98.0840    5.3013  -85.8492 C   0  0  0  0  0  0  0  0  0  0  0  0
   99.6826    9.3097  -90.7147 C   0  0  0  0  0  0  0  0  0  0  0  0
  100.3201    4.4236  -93.3465 O   0  0  0  0  0  0  0  0  0  0  0  0
   95.2159    4.9747  -90.5100 O   0  0  0  0  0  0  0  0  0  0  0  0
  105.6588    1.8664  -93.8517 O   0  0  0  0  0  0  0  0  0  0  0  0
  105.8041    5.6354  -90.4641 C   0  0  0  0  0  0  0  0  0  0  0  0
   98.5511    4.9691  -91.9805 C   0  0  0  0  0  0  0  0  0  0  0  0
  103.3015    9.6070  -91.7601 C   0  0  0  0  0  0  0  0  0  0  0  0
   95.7821    5.0173  -87.5322 O   0  0  0  0  0  0  0  0  0  0  0  0
   98.9583    3.9250  -91.0872 C   0  0  0  0  0  0  0  0  0  0  0  0
  100.1591    6.6965  -92.6808 C   0  0  0  0  0  0  0  0  0  0  0  0
  104.1139    3.9789  -90.1681 O   0  0  0  0  0  0  0  0  0  0  0  0
   97.9765    7.9484  -89.3179 C   0  0  0  0  0  0  0  0  0  0  0  0
   99.7078    2.7861  -86.3033 C   0  0  0  0  0  0  0  0  0  0  0  0
   98.2040    6.5774  -83.7177 C   0  0  0  0  0  0  0  0  0  0  0  0
  105.4404    9.3068  -92.1898 N   0  0  0  0  0  0  0  0  0  0  0  0
  102.0480    9.1149  -91.1968 C   0  0  0  0  0  0  0  0  0  0  0  0
  101.5968    4.2154  -87.9563 C   0  0  0  0  0  0  0  0  0  0  0  0
  104.5420    2.2714  -91.7981 C   0  0  0  0  0  0  0  0  0  0  0  0
   96.6621    7.8080  -88.8828 C   0  0  0  0  0  0  0  0  0  0  0  0
   99.0074    2.7570  -91.4671 O   0  0  0  0  0  0  0  0  0  0  0  0
  104.2100    1.4782  -90.7568 O   0  0  0  0  0  0  0  0  0  0  0  0
  103.8646    0.2783  -95.3542 O   0  0  0  0  0  0  0  0  0  0  0  0
  102.8322    4.9709  -88.2105 C   0  0  0  0  0  0  0  0  0  0  0  0
   96.8418    4.4449  -88.0816 C   0  0  0  0  0  0  0  0  0  0  0  0
  105.1798    8.2893  -91.3421 C   0  0  0  0  0  0  0  0  0  0  0  0
   98.4779    4.0206  -83.8124 C   0  0  0  0  0  0  0  0  0  0  0  0
   95.9784    9.7355  -89.9913 C   0  0  0  0  0  0  0  0  0  0  0  0
  104.4650    1.6626  -93.1768 C   0  0  0  0  0  0  0  0  0  0  0  0
  106.2449    6.6598  -88.3234 O   0  0  0  0  0  0  0  0  0  0  0  0
  106.5118    6.7524  -89.6848 C   0  0  0  0  0  0  0  0  0  0  0  0
   96.5185    4.8009  -90.6630 C   0  0  0  0  0  0  0  0  0  0  0  0
   97.8190    5.2135  -83.1322 C   0  0  0  0  0  0  0  0  0  0  0  0
  100.8217    4.8757  -86.8529 N   0  0  0  0  0  0  0  0  0  0  0  0
   95.6250    8.6264  -89.2119 C   0  0  0  0  0  0  0  0  0  0  0  0
  102.8580    0.7442  -94.7533 C   0  0  0  0  0  0  0  0  0  0  0  0
  103.2075    1.9829  -93.9093 C   0  0  0  0  0  0  0  0  0  0  0  0
  100.2303    4.0993  -85.7688 C   0  0  0  0  0  0  0  0  0  0  0  0
  100.7792    8.4596  -90.7510 N   0  0  0  0  0  0  0  0  0  0  0  0
   98.9358   11.5029  -91.3836 C   0  0  0  0  0  0  0  0  0  0  0  0
   97.7340    6.6121  -85.1541 C   0  0  0  0  0  0  0  0  0  0  0  0
  101.5164    6.7426  -92.4882 O   0  0  0  0  0  0  0  0  0  0  0  0
   97.6811   11.2436  -90.8988 C   0  0  0  0  0  0  0  0  0  0  0  0
  101.6633    4.4875  -93.8201 C   0  0  0  0  0  0  0  0  0  0  0  0
  100.9495    2.4855  -94.7599 O   0  0  0  0  0  0  0  0  0  0  0  0
   96.6743    3.2986  -88.8307 O   0  0  0  0  0  0  0  0  0  0  0  0
  101.9843   -0.0629  -94.1871 O   0  0  0  0  0  0  0  0  0  0  0  0
  106.3186    8.0834  -90.3862 C   0  0  0  0  0  0  0  0  0  0  0  0
  104.5695    9.5824  -91.1956 C   0  0  0  0  0  0  0  0  0  0  0  0
   98.3816    9.0011  -90.1538 C   0  0  0  0  0  0  0  0  0  0  0  0
  106.7169    9.1084  -89.6190 O   0  0  0  0  0  0  0  0  0  0  0  0
  1 12  1  0
  1 46  1  0
  1 60  1  0
  2 17  1  0
  2 21  1  0
  2 25  1  0
  3 14  1  0
  3 38  1  0
  4 16  2  0
  4 54  1  0
  5 21  1  0
  5 46  1  0
  6  7  1  0
  6 15  1  0
  6 39  1  0
  7 28  1  0
  8 15  1  0
  8 41  1  0
  8 52  1  0
  9 26  1  0
  9 33  1  0
 10 51  1  0
 10 58  1  0
 10 59  1  0
 11 38  1  0
 12 24  1  0
 13 42  2  0
 13 57  1  0
 13 64  1  0
 14 20  1  0
 14 26  1  0
 15 55  1  0
 16 53  1  0
 16 64  1  0
 17 58  1  0
 18 46  1  0
 19 43  1  0
 20 45  1  0
 21 24  1  0
 22 31  1  0
 22 63  1  0
 23 39  1  0
 24 35  2  0
 25 56  1  0
 27 34  2  0
 27 64  1  0
 28 52  1  0
 29 47  1  0
 29 55  1  0
 30 40  1  0
 30 63  1  0
 31 53  1  0
 32 38  1  0
 32 48  1  0
 33 36  1  0
 33 43  1  0
 34 49  1  0
 37 50  2  0
 40 62  1  0
 41 47  1  0
 42 49  1  0
 43 51  1  0
 44 45  1  0
 45 62  1  0
 48 52  1  0
 50 51  1  0
 50 61  1  0
 54 57  2  0
 62 65  1  0
M  END
$$$$
