
     RDKit          3D

 28 30  0  0  0  0  0  0  0  0999 V2000
  105.2074    5.1643  -91.9128 O   0  0  0  0  0  0  0  0  0  0  0  0
  101.2864    9.5857  -91.3277 S   0  0  0  0  0  0  0  0  0  0  0  0
   98.7706    4.3179  -89.4818 C   0  0  0  0  0  0  0  0  0  0  0  0
  102.7060    1.5438  -94.7519 O   0  0  0  0  0  0  0  0  0  0  0  0
   99.6796    3.8562  -88.3312 C   0  0  0  0  0  0  0  0  0  0  0  0
  102.9570    8.8108  -91.4528 C   0  0  0  0  0  0  0  0  0  0  0  0
  102.6251    7.3672  -91.0134 C   0  0  0  0  0  0  0  0  0  0  0  0
  106.0487    2.6563  -91.2828 O   0  0  0  0  0  0  0  0  0  0  0  0
  102.9454    2.4170  -93.7143 C   0  0  0  0  0  0  0  0  0  0  0  0
  102.8398    4.1685  -91.2530 C   0  0  0  0  0  0  0  0  0  0  0  0
  100.2369    8.1154  -91.1907 C   0  0  0  0  0  0  0  0  0  0  0  0
  102.2512    2.8861  -91.4855 O   0  0  0  0  0  0  0  0  0  0  0  0
  101.1706    7.0789  -90.6059 C   0  0  0  0  0  0  0  0  0  0  0  0
  104.8224    2.8193  -91.8100 C   0  0  0  0  0  0  0  0  0  0  0  0
   97.2565    4.3396  -89.2197 C   0  0  0  0  0  0  0  0  0  0  0  0
  101.7586    5.0451  -91.5838 O   0  0  0  0  0  0  0  0  0  0  0  0
  105.7743    8.1218  -91.2642 O   0  0  0  0  0  0  0  0  0  0  0  0
  104.2627    2.1210  -93.0188 C   0  0  0  0  0  0  0  0  0  0  0  0
  104.3206    4.2282  -91.5312 C   0  0  0  0  0  0  0  0  0  0  0  0
   98.2165    6.3426  -90.8666 C   0  0  0  0  0  0  0  0  0  0  0  0
   99.2798    5.5514  -90.1114 C   0  0  0  0  0  0  0  0  0  0  0  0
  106.0024    9.7204  -92.8297 O   0  0  0  0  0  0  0  0  0  0  0  0
  105.2383    2.0102  -94.0166 O   0  0  0  0  0  0  0  0  0  0  0  0
  104.0491    9.7886  -91.5767 C   0  0  0  0  0  0  0  0  0  0  0  0
  105.3932    9.1909  -91.8593 C   0  0  0  0  0  0  0  0  0  0  0  0
   98.8567    7.5961  -91.5426 C   0  0  0  0  0  0  0  0  0  0  0  0
  100.7349    5.6174  -90.6108 C   0  0  0  0  0  0  0  0  0  0  0  0
  101.7500    2.8933  -92.8765 C   0  0  0  0  0  0  0  0  0  0  0  0
  1 19  1  0
  2  6  1  0
  2 11  1  0
  3  5  1  0
  3 15  1  0
  3 21  1  0
  4  9  1  0
  6  7  1  0
  6 24  1  0
  7 13  1  0
  8 14  1  0
  9 18  1  0
  9 28  1  0
 10 12  1  0
 10 16  1  0
 10 19  1  0
 11 13  1  0
 11 26  1  0
 12 28  1  0
 13 27  1  0
 14 18  1  0
 14 19  1  0
 16 27  1  0
 17 25  2  0
 18 23  1  0
 20 21  1  0
 20 26  1  0
 21 27  1  0
 22 25  1  0
 24 25  1  0
M  END
$$$$
