
     RDKit          3D

 31 32  0  0  0  0  0  0  0  0999 V2000
  105.2668    1.3474  -93.7577 C   0  0  0  0  0  0  0  0  0  0  0  0
  102.5507    3.3519  -92.0004 N   0  0  0  0  0  0  0  0  0  0  0  0
  103.2874    0.4115  -92.5649 C   0  0  0  0  0  0  0  0  0  0  0  0
   98.4132    7.5497  -91.1624 C   0  0  0  0  0  0  0  0  0  0  0  0
  101.2624   10.6494  -90.3613 O   0  0  0  0  0  0  0  0  0  0  0  0
  101.1493    5.3329  -92.3905 C   0  0  0  0  0  0  0  0  0  0  0  0
   99.9367    7.5656  -91.5196 C   0  0  0  0  0  0  0  0  0  0  0  0
  103.4184    2.8536  -93.0042 C   0  0  0  0  0  0  0  0  0  0  0  0
  100.4058   10.0475  -91.1706 C   0  0  0  0  0  0  0  0  0  0  0  0
   98.9686   10.3969  -91.2656 C   0  0  0  0  0  0  0  0  0  0  0  0
   99.4130    5.4529  -90.5711 N   0  0  0  0  0  0  0  0  0  0  0  0
  107.3374    5.7730  -91.9435 O   0  0  0  0  0  0  0  0  0  0  0  0
  100.3592    6.1711  -91.3884 C   0  0  0  0  0  0  0  0  0  0  0  0
  104.1388    1.6345  -92.7863 C   0  0  0  0  0  0  0  0  0  0  0  0
   97.1994    4.8308  -88.8598 O   0  0  0  0  0  0  0  0  0  0  0  0
  103.2139    8.9909  -91.8459 O   0  0  0  0  0  0  0  0  0  0  0  0
  106.6870    4.7983  -90.9124 P   0  0  0  0  0  0  0  0  0  0  0  0
  102.4643    4.7399  -91.9284 C   0  0  0  0  0  0  0  0  0  0  0  0
  103.5985    5.6088  -92.0954 N   0  0  0  0  0  0  0  0  0  0  0  0
   99.6411    4.6513  -89.4269 C   0  0  0  0  0  0  0  0  0  0  0  0
  105.2301    5.4824  -90.3434 O   0  0  0  0  0  0  0  0  0  0  0  0
  104.5855    6.3806  -91.2724 C   0  0  0  0  0  0  0  0  0  0  0  0
  100.7294    4.0403  -89.1889 O   0  0  0  0  0  0  0  0  0  0  0  0
  106.3100    3.4872  -91.5701 O   0  0  0  0  0  0  0  0  0  0  0  0
  107.5587    4.6095  -89.7077 O   0  0  0  0  0  0  0  0  0  0  0  0
  102.5074    7.7211  -90.1275 O   0  0  0  0  0  0  0  0  0  0  0  0
   98.5527    4.6113  -88.3806 C   0  0  0  0  0  0  0  0  0  0  0  0
   98.0601    6.0573  -90.7071 C   0  0  0  0  0  0  0  0  0  0  0  0
  100.9136    8.6783  -91.5696 C   0  0  0  0  0  0  0  0  0  0  0  0
  102.3144    8.3897  -91.1862 C   0  0  0  0  0  0  0  0  0  0  0  0
   97.0533    4.9555  -90.2916 C   0  0  0  0  0  0  0  0  0  0  0  0
  1 14  1  0
  2  8  1  0
  2 18  2  3
  3 14  1  0
  4  7  1  0
  4 28  1  0
  5  9  1  0
  6 13  1  0
  6 18  1  0
  7 13  1  0
  7 29  1  0
  8 14  1  0
  9 10  1  0
  9 29  1  0
 11 13  1  0
 11 20  1  0
 11 28  1  0
 12 17  1  0
 15 27  1  0
 15 31  1  0
 16 30  2  0
 17 21  1  0
 17 24  1  0
 17 25  1  0
 18 19  1  0
 19 22  1  0
 20 23  2  0
 20 27  1  0
 21 22  1  0
 26 30  1  0
 28 31  1  0
 29 30  1  0
M  END
$$$$
