
     RDKit          3D

 27 27  0  0  0  0  0  0  0  0999 V2000
   99.6366    7.4006  -91.1175 C   0  0  0  0  0  0  0  0  0  0  0  0
  104.4624    4.7639  -91.3175 C   0  0  0  0  0  0  0  0  0  0  0  0
   99.1845    5.3550  -89.8293 N   0  0  0  0  0  0  0  0  0  0  0  0
  104.8030    3.8281  -92.4211 C   0  0  0  0  0  0  0  0  0  0  0  0
   98.4800    8.2301  -91.1556 C   0  0  0  0  0  0  0  0  0  0  0  0
  105.3001    4.6615  -90.2945 O   0  0  0  0  0  0  0  0  0  0  0  0
   99.7606    4.3000  -87.7615 C   0  0  0  0  0  0  0  0  0  0  0  0
  103.6242    2.9273  -92.7997 C   0  0  0  0  0  0  0  0  0  0  0  0
  100.8870    7.9962  -91.1094 C   0  0  0  0  0  0  0  0  0  0  0  0
   99.9221   10.2343  -91.2221 C   0  0  0  0  0  0  0  0  0  0  0  0
  100.4186    5.1172  -92.0252 C   0  0  0  0  0  0  0  0  0  0  0  0
  106.0373    3.0661  -92.1715 C   0  0  0  0  0  0  0  0  0  0  0  0
   99.5804    3.0133  -87.6106 O   0  0  0  0  0  0  0  0  0  0  0  0
  101.4773    4.5458  -94.1228 C   0  0  0  0  0  0  0  0  0  0  0  0
  105.9930    1.9482  -91.5712 O   0  0  0  0  0  0  0  0  0  0  0  0
  102.3912    3.4482  -92.0733 C   0  0  0  0  0  0  0  0  0  0  0  0
   98.8307    5.1405  -88.4782 C   0  0  0  0  0  0  0  0  0  0  0  0
  103.6884    5.9968  -91.2101 C   0  0  0  0  0  0  0  0  0  0  0  0
  101.7769    4.6366  -92.6313 N   0  0  0  0  0  0  0  0  0  0  0  0
  102.1536    3.0815  -90.8962 O   0  0  0  0  0  0  0  0  0  0  0  0
   99.4238    3.9948  -92.4141 O   0  0  0  0  0  0  0  0  0  0  0  0
  102.4324    9.9004  -91.2753 C   0  0  0  0  0  0  0  0  0  0  0  0
  107.1471    3.5752  -92.5093 O   0  0  0  0  0  0  0  0  0  0  0  0
   98.6262    9.6302  -91.1892 C   0  0  0  0  0  0  0  0  0  0  0  0
  101.0556    9.3671  -91.1957 C   0  0  0  0  0  0  0  0  0  0  0  0
   99.5484    5.9378  -91.0761 C   0  0  0  0  0  0  0  0  0  0  0  0
  101.0631    4.8689  -87.4610 C   0  0  0  0  0  0  0  0  0  0  0  0
  1  5  2  0
  1  9  1  0
  1 26  1  0
  2  4  1  0
  2  6  1  0
  2 18  1  0
  3 17  1  0
  3 26  1  0
  4  8  1  0
  4 12  1  0
  5 24  1  0
  7 13  1  0
  7 17  1  0
  7 27  1  0
  8 16  1  0
  9 25  2  0
 10 24  2  0
 10 25  1  0
 11 19  1  0
 11 21  2  0
 11 26  1  0
 12 15  2  0
 12 23  1  0
 14 19  1  0
 16 19  1  0
 16 20  2  0
 22 25  1  0
M  END
$$$$
