
     RDKit          3D

 18 18  0  0  0  0  0  0  0  0999 V2000
  101.7937    5.7102  -91.2236 C   0  0  0  0  0  0  0  0  0  0  0  0
  100.2425    4.4193  -89.6162 C   0  0  0  0  0  0  0  0  0  0  0  0
   99.1331    3.9102  -89.4345 O   0  0  0  0  0  0  0  0  0  0  0  0
  106.0987    4.4590  -92.2572 O   0  0  0  0  0  0  0  0  0  0  0  0
   99.4199   10.9760  -91.1547 C   0  0  0  0  0  0  0  0  0  0  0  0
   99.6804    4.7839  -92.2867 C   0  0  0  0  0  0  0  0  0  0  0  0
   99.3178    8.5433  -90.6651 C   0  0  0  0  0  0  0  0  0  0  0  0
  104.8575    2.8434  -91.4033 O   0  0  0  0  0  0  0  0  0  0  0  0
  100.7165    4.6259  -91.0919 C   0  0  0  0  0  0  0  0  0  0  0  0
  101.4029    9.4988  -91.5031 C   0  0  0  0  0  0  0  0  0  0  0  0
   99.9183    7.3112  -90.7006 C   0  0  0  0  0  0  0  0  0  0  0  0
  105.0868    4.0704  -91.6103 C   0  0  0  0  0  0  0  0  0  0  0  0
  101.2256    7.0828  -91.1532 C   0  0  0  0  0  0  0  0  0  0  0  0
  103.0050    5.3623  -91.9592 C   0  0  0  0  0  0  0  0  0  0  0  0
  100.0580    9.6557  -91.1052 C   0  0  0  0  0  0  0  0  0  0  0  0
  101.9737    8.2095  -91.5129 C   0  0  0  0  0  0  0  0  0  0  0  0
  101.0686    4.8370  -88.7109 O   0  0  0  0  0  0  0  0  0  0  0  0
  104.1579    5.0662  -91.0151 C   0  0  0  0  0  0  0  0  0  0  0  0
  1  9  1  0
  1 13  1  0
  1 14  1  0
  2  3  2  0
  2  9  1  0
  2 17  1  0
  4 12  2  0
  5 15  1  0
  6  9  1  0
  7 11  2  0
  7 15  1  0
  8 12  1  0
 10 15  2  0
 10 16  1  0
 11 13  1  0
 12 18  1  0
 13 16  2  0
 14 18  1  0
M  END
$$$$
