
     RDKit          3D

 25 24  0  0  0  0  0  0  0  0999 V2000
   99.8618    7.2412  -90.7878 C   0  0  0  0  0  0  0  0  0  0  0  0
  101.2441    3.9619  -92.4163 C   0  0  0  0  0  0  0  0  0  0  0  0
  101.9100    4.1890  -90.0068 C   0  0  0  0  0  0  0  0  0  0  0  0
  105.3941    2.0927  -93.6620 O   0  0  0  0  0  0  0  0  0  0  0  0
   98.5882    7.8013  -90.1413 C   0  0  0  0  0  0  0  0  0  0  0  0
  102.6101    3.7944  -92.9716 C   0  0  0  0  0  0  0  0  0  0  0  0
   99.8392    9.5687  -91.0539 O   0  0  0  0  0  0  0  0  0  0  0  0
  101.0884    4.9367  -91.1952 C   0  0  0  0  0  0  0  0  0  0  0  0
   99.6552   10.9209  -91.4504 C   0  0  0  0  0  0  0  0  0  0  0  0
  104.4363    6.4213  -90.4894 C   0  0  0  0  0  0  0  0  0  0  0  0
  104.2823    1.8681  -93.1086 C   0  0  0  0  0  0  0  0  0  0  0  0
   98.9177    5.1609  -89.7509 C   0  0  0  0  0  0  0  0  0  0  0  0
  103.1191    2.5508  -93.2970 C   0  0  0  0  0  0  0  0  0  0  0  0
  104.1772    0.6119  -92.3808 C   0  0  0  0  0  0  0  0  0  0  0  0
  100.8546    5.3498  -92.6066 C   0  0  0  0  0  0  0  0  0  0  0  0
  100.6747    8.3996  -91.0620 C   0  0  0  0  0  0  0  0  0  0  0  0
  104.3441    5.2086  -91.4535 C   0  0  0  0  0  0  0  0  0  0  0  0
  105.8476    8.2395  -90.1222 O   0  0  0  0  0  0  0  0  0  0  0  0
  100.1645    5.8484  -90.3255 C   0  0  0  0  0  0  0  0  0  0  0  0
  105.5693    7.3076  -90.8948 C   0  0  0  0  0  0  0  0  0  0  0  0
  106.1552    7.0064  -92.0169 O   0  0  0  0  0  0  0  0  0  0  0  0
  101.8731    8.4212  -91.2318 O   0  0  0  0  0  0  0  0  0  0  0  0
  103.4338    4.8498  -92.6271 N   0  0  0  0  0  0  0  0  0  0  0  0
   98.4152    9.1446  -90.8702 C   0  0  0  0  0  0  0  0  0  0  0  0
   98.7417    3.8647  -90.2753 O   0  0  0  0  0  0  0  0  0  0  0  0
  1  5  1  0
  1 16  1  0
  1 19  1  0
  2  6  1  0
  2 15  1  0
  3  8  1  0
  4 11  2  0
  5 24  1  0
  6 13  1  0
  6 23  1  0
  7  9  1  0
  7 16  1  0
  8 15  1  0
  8 19  1  0
 10 17  1  0
 10 20  1  0
 11 13  1  0
 11 14  1  0
 12 19  1  0
 12 25  1  0
 16 22  2  0
 17 23  1  0
 18 20  2  0
 20 21  1  0
M  END
$$$$
