
     RDKit          3D

 24 27  0  0  0  0  0  0  0  0999 V2000
  102.7916    4.8496  -91.9701 O   0  0  0  0  0  0  0  0  0  0  0  0
  103.8563    2.4030  -92.4554 C   0  0  0  0  0  0  0  0  0  0  0  0
  100.8855    8.1230  -91.1990 C   0  0  0  0  0  0  0  0  0  0  0  0
  107.1554    3.6278  -92.4715 O   0  0  0  0  0  0  0  0  0  0  0  0
   98.8603    7.4032  -90.2861 C   0  0  0  0  0  0  0  0  0  0  0  0
  104.8208    3.5275  -92.1475 C   0  0  0  0  0  0  0  0  0  0  0  0
  104.3667    6.4254  -91.3281 O   0  0  0  0  0  0  0  0  0  0  0  0
   99.0609    5.1925  -91.9509 O   0  0  0  0  0  0  0  0  0  0  0  0
  104.2828    4.9216  -91.7852 C   0  0  0  0  0  0  0  0  0  0  0  0
  102.0043    5.9549  -91.7721 C   0  0  0  0  0  0  0  0  0  0  0  0
  100.0285    7.1633  -90.9574 C   0  0  0  0  0  0  0  0  0  0  0  0
  100.4452    5.7831  -91.6654 C   0  0  0  0  0  0  0  0  0  0  0  0
   99.8584    4.7669  -90.7547 C   0  0  0  0  0  0  0  0  0  0  0  0
  106.3806    2.4117  -90.7525 O   0  0  0  0  0  0  0  0  0  0  0  0
  102.2408    7.4356  -91.6137 C   0  0  0  0  0  0  0  0  0  0  0  0
   98.9468    4.9729  -89.5252 C   0  0  0  0  0  0  0  0  0  0  0  0
  106.2196    3.1710  -91.7556 C   0  0  0  0  0  0  0  0  0  0  0  0
   99.1257    9.6536  -90.9295 C   0  0  0  0  0  0  0  0  0  0  0  0
   98.4909   10.9963  -91.2869 C   0  0  0  0  0  0  0  0  0  0  0  0
  100.4323    9.4403  -91.2165 N   0  0  0  0  0  0  0  0  0  0  0  0
   98.3410    8.6591  -90.3424 N   0  0  0  0  0  0  0  0  0  0  0  0
  103.9312    9.3851  -91.3564 S   0  0  0  0  0  0  0  0  0  0  0  0
  103.5818    7.7024  -91.1121 C   0  0  0  0  0  0  0  0  0  0  0  0
   98.2289    6.3459  -89.6121 O   0  0  0  0  0  0  0  0  0  0  0  0
  1  9  1  0
  1 10  1  0
  2  6  1  0
  3 11  1  0
  3 15  1  0
  3 20  2  0
  4 17  2  0
  5 11  1  0
  5 21  1  0
  5 24  1  0
  6  9  1  0
  6 17  1  0
  7  9  1  0
  7 23  1  0
  8 13  1  0
 10 12  1  0
 10 15  1  0
 11 12  1  0
 12 13  1  0
 13 16  1  0
 14 17  1  0
 15 23  1  0
 16 24  1  0
 18 19  1  0
 18 20  1  0
 18 21  2  0
 22 23  1  0
M  END
$$$$
