
     RDKit          3D

 25 28  0  0  0  0  0  0  0  0999 V2000
   97.8196    4.9562  -89.0285 C   0  0  0  0  0  0  0  0  0  0  0  0
  102.5417    2.7689  -92.5193 S   0  0  0  0  0  0  0  0  0  0  0  0
  101.9291    6.4875  -91.2976 C   0  0  0  0  0  0  0  0  0  0  0  0
   99.3991    5.3731  -92.9324 N   0  0  0  0  0  0  0  0  0  0  0  0
   98.2323    9.8569  -90.9523 C   0  0  0  0  0  0  0  0  0  0  0  0
  100.0117    8.2412  -91.1118 C   0  0  0  0  0  0  0  0  0  0  0  0
  100.5104   10.6418  -91.2403 C   0  0  0  0  0  0  0  0  0  0  0  0
   98.6688    8.5427  -91.0306 C   0  0  0  0  0  0  0  0  0  0  0  0
  104.0232    4.4064  -91.2853 C   0  0  0  0  0  0  0  0  0  0  0  0
  105.4499    2.3684  -91.8801 C   0  0  0  0  0  0  0  0  0  0  0  0
   99.4103    6.1045  -90.0499 N   0  0  0  0  0  0  0  0  0  0  0  0
  103.9958    2.9397  -91.7122 C   0  0  0  0  0  0  0  0  0  0  0  0
  105.9091    2.4133  -93.0572 O   0  0  0  0  0  0  0  0  0  0  0  0
  102.3094    8.9751  -91.6360 O   0  0  0  0  0  0  0  0  0  0  0  0
  100.6919    4.6784  -92.9050 C   0  0  0  0  0  0  0  0  0  0  0  0
   98.5947    5.6369  -88.1309 C   0  0  0  0  0  0  0  0  0  0  0  0
   99.1428   10.9111  -91.0438 C   0  0  0  0  0  0  0  0  0  0  0  0
  100.4793    6.8059  -90.9486 C   0  0  0  0  0  0  0  0  0  0  0  0
  100.9311    9.2947  -91.3242 C   0  0  0  0  0  0  0  0  0  0  0  0
  102.6455    5.0866  -91.3310 C   0  0  0  0  0  0  0  0  0  0  0  0
  101.7661    4.1035  -91.9967 C   0  0  0  0  0  0  0  0  0  0  0  0
   99.5224    6.2572  -88.7749 N   0  0  0  0  0  0  0  0  0  0  0  0
   98.2835    5.2188  -90.1987 N   0  0  0  0  0  0  0  0  0  0  0  0
  105.9884    1.9030  -90.8827 O   0  0  0  0  0  0  0  0  0  0  0  0
  102.8380    7.7089  -91.0834 C   0  0  0  0  0  0  0  0  0  0  0  0
  1 16  1  0
  1 23  1  0
  2 12  1  0
  2 21  1  0
  3 18  1  0
  3 20  1  0
  3 25  1  0
  4 15  1  0
  5  8  1  0
  5 17  2  0
  6  8  2  0
  6 18  1  0
  6 19  1  0
  7 17  1  0
  7 19  2  0
  9 12  1  0
  9 20  1  0
 10 12  1  0
 10 13  2  0
 10 24  1  0
 11 18  1  0
 11 22  1  0
 11 23  1  0
 14 19  1  0
 14 25  1  0
 15 21  1  0
 16 22  1  0
 20 21  1  0
M  END
$$$$
