
     RDKit          3D

 27 29  0  0  0  0  0  0  0  0999 V2000
  100.4868    5.0997  -90.8823 C   0  0  0  0  0  0  0  0  0  0  0  0
  102.5943    3.9243  -91.9142 N   0  0  0  0  0  0  0  0  0  0  0  0
  101.2868    4.3247  -91.7822 C   0  0  0  0  0  0  0  0  0  0  0  0
  105.5200    4.6004  -91.2845 C   0  0  0  0  0  0  0  0  0  0  0  0
  100.2674    6.4805  -90.8694 C   0  0  0  0  0  0  0  0  0  0  0  0
  102.8476    2.5908  -92.2414 C   0  0  0  0  0  0  0  0  0  0  0  0
  105.0396    3.1938  -91.3428 C   0  0  0  0  0  0  0  0  0  0  0  0
   99.6041    4.5318  -89.9788 N   0  0  0  0  0  0  0  0  0  0  0  0
  105.3219    9.6197  -91.8609 C   0  0  0  0  0  0  0  0  0  0  0  0
   99.1253    6.7494  -90.0796 C   0  0  0  0  0  0  0  0  0  0  0  0
   98.7737    8.1994  -90.1554 C   0  0  0  0  0  0  0  0  0  0  0  0
  100.5628    3.5109  -92.6851 N   0  0  0  0  0  0  0  0  0  0  0  0
  104.2281    2.1466  -92.0312 C   0  0  0  0  0  0  0  0  0  0  0  0
  100.0409   10.2430  -91.2140 C   0  0  0  0  0  0  0  0  0  0  0  0
  101.1518    2.9539  -93.9032 C   0  0  0  0  0  0  0  0  0  0  0  0
  106.8279    4.6951  -92.0732 C   0  0  0  0  0  0  0  0  0  0  0  0
  105.8747    2.3513  -90.6185 O   0  0  0  0  0  0  0  0  0  0  0  0
  103.8133    6.2818  -89.8408 S   0  0  0  0  0  0  0  0  0  0  0  0
  105.0266    5.9165  -90.8838 C   0  0  0  0  0  0  0  0  0  0  0  0
  106.6944    9.0311  -91.9288 C   0  0  0  0  0  0  0  0  0  0  0  0
  100.7942    7.7524  -91.4034 C   0  0  0  0  0  0  0  0  0  0  0  0
   98.6950    5.5400  -89.5102 C   0  0  0  0  0  0  0  0  0  0  0  0
  102.3301    2.0571  -93.5583 C   0  0  0  0  0  0  0  0  0  0  0  0
  106.7345    7.6110  -91.5016 C   0  0  0  0  0  0  0  0  0  0  0  0
   99.8667    8.7726  -90.9313 C   0  0  0  0  0  0  0  0  0  0  0  0
  105.4079    7.0510  -91.5847 N   0  0  0  0  0  0  0  0  0  0  0  0
  107.3535    9.1548  -93.2733 C   0  0  0  0  0  0  0  0  0  0  0  0
  1  3  1  0
  1  5  1  0
  1  8  1  0
  2  3  2  0
  2  6  1  0
  3 12  1  0
  4  7  1  0
  4 16  1  0
  4 19  1  0
  5 10  2  0
  5 21  1  0
  6 13  1  0
  6 23  1  0
  7 13  1  0
  7 17  1  0
  8 22  1  0
  9 20  1  0
 10 11  1  0
 10 22  1  0
 11 25  1  0
 12 15  1  0
 14 25  1  0
 15 23  1  0
 18 19  2  0
 19 26  1  0
 20 24  1  0
 20 27  1  0
 21 25  1  0
 24 26  1  0
M  END
$$$$
