
     RDKit          3D

 31 33  0  0  0  0  0  0  0  0999 V2000
  103.0016    4.0610  -92.6835 C   0  0  0  0  0  0  0  0  0  0  0  0
   98.8859   10.0856  -91.2325 C   0  0  0  0  0  0  0  0  0  0  0  0
  100.1666   10.6568  -91.0757 C   0  0  0  0  0  0  0  0  0  0  0  0
   99.6052    6.2826  -91.5088 C   0  0  0  0  0  0  0  0  0  0  0  0
  103.5853    2.7976  -93.0958 N   0  0  0  0  0  0  0  0  0  0  0  0
  104.1174    7.2311  -90.7854 C   0  0  0  0  0  0  0  0  0  0  0  0
   99.8648    7.8110  -91.4045 C   0  0  0  0  0  0  0  0  0  0  0  0
  104.9788    2.6808  -93.1707 C   0  0  0  0  0  0  0  0  0  0  0  0
  101.7856    5.0625  -88.2721 O   0  0  0  0  0  0  0  0  0  0  0  0
  103.7692    4.8240  -91.5205 C   0  0  0  0  0  0  0  0  0  0  0  0
  102.9402    5.5709  -87.9331 C   0  0  0  0  0  0  0  0  0  0  0  0
   97.2739    5.0388  -91.7826 C   0  0  0  0  0  0  0  0  0  0  0  0
  102.5142    1.9329  -93.5178 C   0  0  0  0  0  0  0  0  0  0  0  0
  104.0634    5.6758  -88.8296 C   0  0  0  0  0  0  0  0  0  0  0  0
   98.2821    5.8642  -92.1947 C   0  0  0  0  0  0  0  0  0  0  0  0
   99.5124    5.4839  -90.2454 C   0  0  0  0  0  0  0  0  0  0  0  0
  105.9190    3.3049  -92.5326 O   0  0  0  0  0  0  0  0  0  0  0  0
   98.7163    8.7323  -91.4083 C   0  0  0  0  0  0  0  0  0  0  0  0
  100.9157    6.1326  -92.1999 C   0  0  0  0  0  0  0  0  0  0  0  0
   97.3818    4.3352  -90.5295 C   0  0  0  0  0  0  0  0  0  0  0  0
  101.2662    9.7981  -91.0508 C   0  0  0  0  0  0  0  0  0  0  0  0
  105.5254    1.8544  -94.0430 O   0  0  0  0  0  0  0  0  0  0  0  0
   97.7219   11.0844  -91.2186 C   0  0  0  0  0  0  0  0  0  0  0  0
  101.1549    5.3567  -93.3133 N   0  0  0  0  0  0  0  0  0  0  0  0
  101.6191    4.0496  -93.2000 C   0  0  0  0  0  0  0  0  0  0  0  0
  101.1151    8.4312  -91.1816 C   0  0  0  0  0  0  0  0  0  0  0  0
  103.1536    5.8327  -86.7098 O   0  0  0  0  0  0  0  0  0  0  0  0
  102.5487    0.7106  -93.7490 O   0  0  0  0  0  0  0  0  0  0  0  0
   98.5849    4.6105  -89.8154 C   0  0  0  0  0  0  0  0  0  0  0  0
  101.3234    2.6921  -93.5674 N   0  0  0  0  0  0  0  0  0  0  0  0
  103.8993    5.7986  -90.2450 C   0  0  0  0  0  0  0  0  0  0  0  0
  1  5  1  0
  1 10  2  0
  1 25  1  0
  2  3  1  0
  2 18  2  0
  2 23  1  0
  3 21  1  0
  4  7  1  0
  4 15  1  0
  4 16  1  0
  4 19  1  0
  5  8  1  0
  5 13  1  0
  6 31  1  0
  7 18  1  0
  7 26  1  0
  8 17  2  0
  8 22  1  0
  9 11  2  0
 10 31  2  0
 11 14  1  0
 11 27  1  0
 12 15  2  0
 12 20  1  0
 13 28  2  0
 13 30  1  0
 14 31  1  0
 16 29  2  0
 19 24  1  0
 20 29  1  0
 21 26  2  0
 24 25  2  3
 25 30  1  0
M  END
$$$$
