
     RDKit          3D

 20 21  0  0  0  0  0  0  0  0999 V2000
   -5.9683    2.2762  -32.2244 O   0  0  0  0  0  0  0  0  0  0  0  0
   -9.4776    3.8804  -28.3187 C   0  0  0  0  0  0  0  0  0  0  0  0
   -8.1992    4.2375  -29.1028 C   0  0  0  0  0  0  0  0  0  0  0  0
   -7.9175    2.7022  -30.9368 C   0  0  0  0  0  0  0  0  0  0  0  0
  -10.4706    3.1094  -30.9671 O   0  0  0  0  0  0  0  0  0  0  0  0
   -8.0782    7.3348  -27.6466 O   0  0  0  0  0  0  0  0  0  0  0  0
   -8.4845    1.4901  -32.3222 O   0  0  0  0  0  0  0  0  0  0  0  0
   -7.3534    2.5491  -32.1648 C   0  0  0  0  0  0  0  0  0  0  0  0
   -9.2287    3.5559  -31.1228 C   0  0  0  0  0  0  0  0  0  0  0  0
   -9.7876    5.1675  -27.6922 C   0  0  0  0  0  0  0  0  0  0  0  0
   -8.6426    6.2174  -27.8000 C   0  0  0  0  0  0  0  0  0  0  0  0
   -9.7902    5.8951  -30.9544 C   0  0  0  0  0  0  0  0  0  0  0  0
   -9.3268    6.8153  -31.9359 O   0  0  0  0  0  0  0  0  0  0  0  0
   -7.6940    5.2819  -31.3208 O   0  0  0  0  0  0  0  0  0  0  0  0
   -7.4358    3.1289  -29.6257 O   0  0  0  0  0  0  0  0  0  0  0  0
   -8.7288    5.0013  -30.4951 C   0  0  0  0  0  0  0  0  0  0  0  0
  -10.8441    3.2070  -28.3770 O   0  0  0  0  0  0  0  0  0  0  0  0
   -7.2263    3.5062  -33.2725 O   0  0  0  0  0  0  0  0  0  0  0  0
  -10.9436    5.1369  -26.6835 C   0  0  0  0  0  0  0  0  0  0  0  0
   -7.5823    5.1520  -28.2050 C   0  0  0  0  0  0  0  0  0  0  0  0
  1  8  1  0
  2  3  1  0
  2 10  1  0
  2 17  1  0
  3 15  1  0
  3 16  1  0
  3 20  1  0
  4  8  1  0
  4  9  1  0
  4 15  1  0
  5  9  1  0
  6 11  2  0
  7  8  1  0
  8 18  1  0
  9 16  1  0
 10 11  1  0
 10 19  1  0
 11 20  1  0
 12 13  1  0
 12 16  1  0
 14 16  1  0
M  END
$$$$
