
     RDKit          3D

 44 43  0  0  0  0  0  0  0  0999 V2000
  -11.9882    3.1833  -30.7038 C   0  0  0  0  0  0  0  0  0  0  0  0
  -14.9592    0.6178  -32.2892 C   0  0  0  0  0  0  0  0  0  0  0  0
   -8.0648    7.0714  -27.5300 C   0  0  0  0  0  0  0  0  0  0  0  0
   -9.1481    6.6815  -31.9114 O   0  0  0  0  0  0  0  0  0  0  0  0
  -17.7324    1.7533  -34.6179 O   0  0  0  0  0  0  0  0  0  0  0  0
  -13.2917    1.2002  -31.2705 C   0  0  0  0  0  0  0  0  0  0  0  0
  -13.7586    0.0126  -30.5184 C   0  0  0  0  0  0  0  0  0  0  0  0
   -9.9941    5.2865  -27.1054 C   0  0  0  0  0  0  0  0  0  0  0  0
   -5.7623   -1.8562  -30.1820 N   0  0  0  0  0  0  0  0  0  0  0  0
   -9.5345    2.2329  -32.4671 C   0  0  0  0  0  0  0  0  0  0  0  0
   -7.6754    4.7939  -27.8012 F   0  0  0  0  0  0  0  0  0  0  0  0
  -12.1698    2.2802  -30.5181 C   0  0  0  0  0  0  0  0  0  0  0  0
  -10.5564    6.1501  -26.1902 O   0  0  0  0  0  0  0  0  0  0  0  0
   -7.2754    4.6438  -30.8085 C   0  0  0  0  0  0  0  0  0  0  0  0
  -10.4664    3.4692  -28.1836 C   0  0  0  0  0  0  0  0  0  0  0  0
  -11.4142    4.4879  -30.2722 C   0  0  0  0  0  0  0  0  0  0  0  0
  -13.8445    1.6262  -32.1809 C   0  0  0  0  0  0  0  0  0  0  0  0
  -19.3040   -0.1427  -33.3095 O   0  0  0  0  0  0  0  0  0  0  0  0
   -7.4273    2.0471  -33.7527 O   0  0  0  0  0  0  0  0  0  0  0  0
   -7.7147    1.5724  -30.1792 C   0  0  0  0  0  0  0  0  0  0  0  0
  -15.9089    1.2396  -33.0571 C   0  0  0  0  0  0  0  0  0  0  0  0
   -7.3757    3.5929  -33.4679 O   0  0  0  0  0  0  0  0  0  0  0  0
  -17.2255   -1.6384  -31.1768 O   0  0  0  0  0  0  0  0  0  0  0  0
  -14.8394   -0.2271  -31.2700 C   0  0  0  0  0  0  0  0  0  0  0  0
   -8.6941    4.5012  -31.1346 C   0  0  0  0  0  0  0  0  0  0  0  0
   -3.8354   -2.7654  -29.8714 N   0  0  0  0  0  0  0  0  0  0  0  0
   -8.8288    5.7162  -28.0289 C   0  0  0  0  0  0  0  0  0  0  0  0
   -4.8299   -5.3193  -30.6697 C   0  0  0  0  0  0  0  0  0  0  0  0
   -8.5874    7.4888  -26.5960 N   0  0  0  0  0  0  0  0  0  0  0  0
   -9.2861    6.2718  -29.3787 C   0  0  0  0  0  0  0  0  0  0  0  0
   -9.3519    5.8572  -30.7673 C   0  0  0  0  0  0  0  0  0  0  0  0
   -4.5970   -2.7216  -30.4890 C   0  0  0  0  0  0  0  0  0  0  0  0
   -5.0229   -4.2315  -30.8147 C   0  0  0  0  0  0  0  0  0  0  0  0
  -17.3082    1.1579  -33.4657 C   0  0  0  0  0  0  0  0  0  0  0  0
  -18.1178    0.2657  -32.7454 C   0  0  0  0  0  0  0  0  0  0  0  0
   -3.6915   -5.7201  -29.7886 O   0  0  0  0  0  0  0  0  0  0  0  0
   -6.3155    2.1813  -32.4330 O   0  0  0  0  0  0  0  0  0  0  0  0
   -9.4150    3.5692  -30.0692 C   0  0  0  0  0  0  0  0  0  0  0  0
  -17.4941   -0.6817  -31.8570 C   0  0  0  0  0  0  0  0  0  0  0  0
   -8.3228    2.1103  -31.7584 O   0  0  0  0  0  0  0  0  0  0  0  0
  -11.1345    4.3871  -27.0889 C   0  0  0  0  0  0  0  0  0  0  0  0
  -10.5192    4.0229  -29.3181 C   0  0  0  0  0  0  0  0  0  0  0  0
   -7.2962    2.5253  -32.1016 P   0  0  0  0  0  0  0  0  0  0  0  0
   -9.4469    3.0334  -27.2303 F   0  0  0  0  0  0  0  0  0  0  0  0
  1 12  2  3
  1 16  1  0
  2 17  1  0
  2 21  1  0
  2 24  1  0
  3 27  1  0
  3 29  1  0
  4 31  1  0
  5 34  1  0
  6  7  1  0
  6 12  1  0
  6 17  1  0
  7 24  1  0
  8 13  1  0
  8 27  1  0
  8 41  1  0
  9 32  1  0
 10 40  1  0
 11 27  1  0
 14 25  1  0
 15 41  1  0
 15 42  1  0
 15 44  1  0
 16 42  1  0
 18 35  1  0
 19 22  1  0
 19 43  1  0
 20 43  1  0
 21 34  1  0
 23 39  2  0
 25 31  1  0
 25 38  1  0
 26 32  1  0
 27 30  1  0
 28 33  2  3
 28 36  1  0
 30 31  1  0
 32 33  1  0
 34 35  1  0
 35 39  2  0
 37 43  1  0
 38 42  1  0
 40 43  1  0
M  END
$$$$
