
     RDKit          3D

 27 24  0  0  0  0  0  0  0  0999 V2000
   -9.0591    3.8106  -31.4164 C   0  0  0  0  0  0  0  0  0  0  0  0
  -11.6873    3.9686  -30.2167 C   0  0  0  0  0  0  0  0  0  0  0  0
  -10.5669    4.9319  -27.1135 C   0  0  0  0  0  0  0  0  0  0  0  0
  -10.0110    2.8412  -31.7612 C   0  0  0  0  0  0  0  0  0  0  0  0
   -9.7447    1.8042  -33.1768 O   0  0  0  0  0  0  0  0  0  0  0  0
   -7.3867    5.0136  -28.0097 C   0  0  0  0  0  0  0  0  0  0  0  0
  -11.8807    2.8439  -31.0027 C   0  0  0  0  0  0  0  0  0  0  0  0
   -7.5992    3.5990  -30.0333 S   0  0  0  0  0  0  0  0  0  0  0  0
   -7.1706    3.6971  -33.0644 O   0  0  0  0  0  0  0  0  0  0  0  0
   -7.9515    7.3462  -27.7380 N   0  0  0  0  0  0  0  0  0  0  0  0
  -13.1258    2.2910  -31.6211 C   0  0  0  0  0  0  0  0  0  0  0  0
   -7.1056    2.0722  -31.7536 C   0  0  0  0  0  0  0  0  0  0  0  0
   -9.3671    5.6413  -27.6064 C   0  0  0  0  0  0  0  0  0  0  0  0
  -12.0133    1.9318  -29.6438 C   0  0  0  0  0  0  0  0  0  0  0  0
   -8.5169    4.9831  -28.4552 C   0  0  0  0  0  0  0  0  0  0  0  0
   -7.1864    1.0758  -31.3560 C   0  0  0  0  0  0  0  0  0  0  0  0
  -11.1274    5.4503  -26.1456 O   0  0  0  0  0  0  0  0  0  0  0  0
   -8.6106    6.8779  -27.0173 C   0  0  0  0  0  0  0  0  0  0  0  0
  -10.0729    3.6679  -27.8282 O   0  0  0  0  0  0  0  0  0  0  0  0
   -8.6014    5.6228  -31.6250 O   0  0  0  0  0  0  0  0  0  0  0  0
  -10.5848    3.9531  -29.2027 C   0  0  0  0  0  0  0  0  0  0  0  0
   -6.1218    2.5727  -32.2366 O   0  0  0  0  0  0  0  0  0  0  0  0
  -13.6310    1.1897  -31.8553 C   0  0  0  0  0  0  0  0  0  0  0  0
   -9.2912    4.3100  -29.4758 O   0  0  0  0  0  0  0  0  0  0  0  0
   -7.7591    3.3386  -32.2727 C   0  0  0  0  0  0  0  0  0  0  0  0
   -6.7216   -0.6876  -30.0910 O   0  0  0  0  0  0  0  0  0  0  0  0
   -7.5613    1.4872  -31.1763 C   0  0  0  0  0  0  0  0  0  0  0  0
  1  4  1  0
  1  8  1  0
  1 25  1  0
  2  7  1  0
  2 21  1  0
  3 13  1  0
  3 17  2  0
  3 19  1  0
  4  5  1  0
  6 15  1  0
  7 11  1  0
  7 14  1  0
  8 24  1  0
  9 25  2  0
 10 18  1  0
 11 23  2  0
 12 22  2  0
 12 25  1  0
 12 27  1  0
 13 15  1  0
 13 18  1  0
 16 27  1  0
 19 21  1  0
 21 24  1  0
M  END
$$$$
