
     RDKit          3D

 13 12  0  0  0  0  0  0  0  0999 V2000
   -7.4108    3.5650  -33.4233 O   0  0  0  0  0  0  0  0  0  0  0  0
   -5.9586    2.2468  -32.2274 O   0  0  0  0  0  0  0  0  0  0  0  0
   -8.4211    1.4505  -32.4433 O   0  0  0  0  0  0  0  0  0  0  0  0
   -8.9229    4.9180  -28.8179 C   0  0  0  0  0  0  0  0  0  0  0  0
   -7.9748    5.9225  -28.1997 C   0  0  0  0  0  0  0  0  0  0  0  0
   -8.2122    5.3541  -31.5570 O   0  0  0  0  0  0  0  0  0  0  0  0
   -7.5830    2.7306  -32.1567 P   0  0  0  0  0  0  0  0  0  0  0  0
   -9.9478    4.3492  -27.7330 C   0  0  0  0  0  0  0  0  0  0  0  0
  -10.8201    3.3891  -28.4513 O   0  0  0  0  0  0  0  0  0  0  0  0
   -7.0702    3.5066  -29.4793 O   0  0  0  0  0  0  0  0  0  0  0  0
   -8.4391    3.7133  -29.6999 C   0  0  0  0  0  0  0  0  0  0  0  0
   -8.5893    3.9572  -31.2573 C   0  0  0  0  0  0  0  0  0  0  0  0
   -8.3004    7.1910  -27.8852 O   0  0  0  0  0  0  0  0  0  0  0  0
  1  7  1  0
  2  7  1  0
  3  7  1  0
  4  5  1  0
  4  8  1  0
  4 11  1  0
  5 13  1  0
  6 12  1  0
  7 12  1  0
  8  9  1  0
 10 11  1  0
 11 12  1  0
M  END
$$$$
