
     RDKit          3D

 12 11  0  0  0  0  0  0  0  0999 V2000
   -9.7944    4.3568  -29.6878 C   0  0  0  0  0  0  0  0  0  0  0  0
   -6.9634    3.4992  -29.8602 O   0  0  0  0  0  0  0  0  0  0  0  0
   -8.9538    4.0325  -31.0490 C   0  0  0  0  0  0  0  0  0  0  0  0
  -10.2948    4.9438  -27.3235 O   0  0  0  0  0  0  0  0  0  0  0  0
   -8.0260    5.5430  -28.1703 C   0  0  0  0  0  0  0  0  0  0  0  0
   -8.1954    6.8432  -27.9033 O   0  0  0  0  0  0  0  0  0  0  0  0
   -7.7198    3.1914  -30.8242 C   0  0  0  0  0  0  0  0  0  0  0  0
   -7.3066    2.2896  -31.9253 C   0  0  0  0  0  0  0  0  0  0  0  0
   -9.2184    4.5363  -28.1988 C   0  0  0  0  0  0  0  0  0  0  0  0
   -8.2704    1.5198  -32.4016 O   0  0  0  0  0  0  0  0  0  0  0  0
   -9.0953    5.4535  -30.5957 O   0  0  0  0  0  0  0  0  0  0  0  0
   -5.9954    2.2078  -32.2290 O   0  0  0  0  0  0  0  0  0  0  0  0
  1  3  1  0
  1  9  1  0
  2  7  2  0
  3  7  1  0
  3 11  1  0
  4  9  1  0
  5  6  1  0
  5  9  1  0
  7  8  1  0
  8 10  2  0
  8 12  1  0
M  END
$$$$
