
     RDKit          3D

 27 28  0  0  0  0  0  0  0  0999 V2000
   -8.4849    5.8386  -28.5119 C   0  0  0  0  0  0  0  0  0  0  0  0
   -7.3184    3.1837  -31.2374 P   0  0  0  0  0  0  0  0  0  0  0  0
   -8.1471    1.3406  -32.1665 O   0  0  0  0  0  0  0  0  0  0  0  0
  -15.0025   -0.1477  -31.6451 C   0  0  0  0  0  0  0  0  0  0  0  0
   -8.7602    5.5757  -29.9902 C   0  0  0  0  0  0  0  0  0  0  0  0
  -13.7630    2.3524  -32.2235 C   0  0  0  0  0  0  0  0  0  0  0  0
   -7.9217    6.9378  -27.8852 C   0  0  0  0  0  0  0  0  0  0  0  0
  -12.8752    1.9111  -31.4845 C   0  0  0  0  0  0  0  0  0  0  0  0
   -9.6974    6.2451  -26.7021 N   0  0  0  0  0  0  0  0  0  0  0  0
  -11.8731    2.8531  -30.7809 C   0  0  0  0  0  0  0  0  0  0  0  0
   -7.1452    3.7979  -29.5302 C   0  0  0  0  0  0  0  0  0  0  0  0
  -15.0576    0.8028  -32.5355 O   0  0  0  0  0  0  0  0  0  0  0  0
  -13.5975   -0.4539  -31.3394 C   0  0  0  0  0  0  0  0  0  0  0  0
   -6.8678    4.1407  -30.8153 C   0  0  0  0  0  0  0  0  0  0  0  0
  -10.8979    4.2962  -27.5807 C   0  0  0  0  0  0  0  0  0  0  0  0
  -13.3972    0.7931  -30.5906 C   0  0  0  0  0  0  0  0  0  0  0  0
   -6.0976    2.2319  -32.3077 O   0  0  0  0  0  0  0  0  0  0  0  0
   -8.5349    7.2735  -26.7557 C   0  0  0  0  0  0  0  0  0  0  0  0
  -14.6935    1.6348  -33.0516 C   0  0  0  0  0  0  0  0  0  0  0  0
   -9.6225    5.3260  -27.6565 C   0  0  0  0  0  0  0  0  0  0  0  0
   -8.1577    3.3375  -28.7850 F   0  0  0  0  0  0  0  0  0  0  0  0
  -10.3957    2.8517  -31.4400 C   0  0  0  0  0  0  0  0  0  0  0  0
   -8.7224    6.1401  -31.4781 O   0  0  0  0  0  0  0  0  0  0  0  0
   -9.2940    3.6472  -31.2422 C   0  0  0  0  0  0  0  0  0  0  0  0
   -6.7670    3.8190  -32.7886 O   0  0  0  0  0  0  0  0  0  0  0  0
   -9.4709    4.3267  -30.0078 N   0  0  0  0  0  0  0  0  0  0  0  0
   -7.8367    3.7799  -31.7687 C   0  0  0  0  0  0  0  0  0  0  0  0
  1  5  1  0
  1  7  1  0
  1 20  1  0
  2  3  1  0
  2 14  1  0
  2 17  1  0
  2 25  1  0
  2 27  1  0
  4 12  1  0
  4 13  1  0
  5 23  2  0
  5 26  1  0
  6  8  1  0
  6 19  1  0
  7 18  1  0
  8 10  1  0
  8 16  1  0
  9 18  1  0
  9 20  1  0
 10 22  1  0
 11 14  1  0
 11 21  1  0
 12 19  1  0
 13 16  1  0
 15 20  1  0
 22 24  1  0
 24 26  1  0
 24 27  1  0
M  END
$$$$
