
     RDKit          3D

 12 11  0  0  0  0  0  0  0  0999 V2000
   -7.3011    3.5340  -33.4169 O   0  0  0  0  0  0  0  0  0  0  0  0
   -8.7287    5.3557  -29.7735 C   0  0  0  0  0  0  0  0  0  0  0  0
   -7.9584    6.5950  -27.7380 O   0  0  0  0  0  0  0  0  0  0  0  0
   -7.7076    3.3494  -30.8342 O   0  0  0  0  0  0  0  0  0  0  0  0
  -10.8654    3.8677  -28.6804 S   0  0  0  0  0  0  0  0  0  0  0  0
   -7.3983    2.5811  -32.1258 P   0  0  0  0  0  0  0  0  0  0  0  0
   -8.3741    5.1138  -28.2731 C   0  0  0  0  0  0  0  0  0  0  0  0
   -6.0750    2.2537  -32.3243 O   0  0  0  0  0  0  0  0  0  0  0  0
   -9.4337    3.9781  -27.7175 C   0  0  0  0  0  0  0  0  0  0  0  0
   -7.9213    4.7749  -30.7776 C   0  0  0  0  0  0  0  0  0  0  0  0
   -8.5814    5.6222  -31.5135 O   0  0  0  0  0  0  0  0  0  0  0  0
   -8.3821    1.5127  -32.3983 O   0  0  0  0  0  0  0  0  0  0  0  0
  1  6  1  0
  2  7  1  0
  2 10  1  0
  3  7  1  0
  4  6  1  0
  4 10  1  0
  5  9  1  0
  6  8  1  0
  6 12  1  0
  7  9  1  0
 10 11  1  0
M  END
$$$$
