
     RDKit          3D

 10  9  0  0  0  0  0  0  0  0999 V2000
   -8.4650    4.9389  -29.5228 C   0  0  0  0  0  0  0  0  0  0  0  0
   -7.9903    5.6788  -28.4044 O   0  0  0  0  0  0  0  0  0  0  0  0
   -5.9822    2.2525  -32.2628 O   0  0  0  0  0  0  0  0  0  0  0  0
   -9.7486    4.1434  -28.9595 C   0  0  0  0  0  0  0  0  0  0  0  0
   -8.4055    1.5389  -32.3768 O   0  0  0  0  0  0  0  0  0  0  0  0
   -7.3445    2.2758  -32.0976 C   0  0  0  0  0  0  0  0  0  0  0  0
   -7.9699    3.5007  -31.6516 C   0  0  0  0  0  0  0  0  0  0  0  0
   -8.8845    5.7248  -30.8061 O   0  0  0  0  0  0  0  0  0  0  0  0
   -7.4743    3.7461  -30.1546 C   0  0  0  0  0  0  0  0  0  0  0  0
   -6.2047    3.9054  -30.5657 O   0  0  0  0  0  0  0  0  0  0  0  0
  1  2  1  0
  1  4  1  0
  1  8  1  0
  1  9  1  0
  3  6  2  0
  5  6  1  0
  6  7  1  0
  7  9  1  0
  9 10  1  0
M  END
$$$$
