
     RDKit          3D

 15 15  0  0  0  0  0  0  0  0999 V2000
   -7.2624    3.2820  -31.0542 C   0  0  0  0  0  0  0  0  0  0  0  0
  -11.3794    5.0607  -26.5425 O   0  0  0  0  0  0  0  0  0  0  0  0
   -7.7266    4.4543  -29.3564 C   0  0  0  0  0  0  0  0  0  0  0  0
  -10.3622    3.6089  -28.5308 C   0  0  0  0  0  0  0  0  0  0  0  0
   -8.5827    5.3397  -28.6227 C   0  0  0  0  0  0  0  0  0  0  0  0
  -10.3247    5.4879  -26.8153 C   0  0  0  0  0  0  0  0  0  0  0  0
   -7.2434    3.5852  -33.3646 O   0  0  0  0  0  0  0  0  0  0  0  0
   -8.2141    6.6375  -28.1787 N   0  0  0  0  0  0  0  0  0  0  0  0
   -8.3370    1.7030  -32.4148 O   0  0  0  0  0  0  0  0  0  0  0  0
   -6.1576    3.8602  -30.6145 O   0  0  0  0  0  0  0  0  0  0  0  0
   -6.0638    2.1671  -32.2176 O   0  0  0  0  0  0  0  0  0  0  0  0
   -8.3953    3.4680  -30.1914 C   0  0  0  0  0  0  0  0  0  0  0  0
   -9.9243    3.5152  -29.9768 C   0  0  0  0  0  0  0  0  0  0  0  0
   -9.5662    4.5250  -27.8069 C   0  0  0  0  0  0  0  0  0  0  0  0
   -7.3483    2.6208  -32.2592 C   0  0  0  0  0  0  0  0  0  0  0  0
  1 10  1  0
  1 12  1  0
  1 15  1  0
  2  6  1  0
  3  5  1  0
  3 12  1  0
  4 13  1  0
  4 14  1  0
  5  8  1  0
  5 14  1  0
  6 14  1  0
  7 15  1  0
  9 15  1  0
 11 15  1  0
 12 13  1  0
M  END
$$$$
