
     RDKit          3D

  9  8  0  0  0  0  0  0  0  0999 V2000
   -7.3799    3.5321  -30.5963 C   0  0  0  0  0  0  0  0  0  0  0  0
   -8.7678    4.0269  -30.1267 C   0  0  0  0  0  0  0  0  0  0  0  0
   -7.2470    3.5896  -33.4104 O   0  0  0  0  0  0  0  0  0  0  0  0
   -7.9855    6.7616  -27.6016 C   0  0  0  0  0  0  0  0  0  0  0  0
   -7.4003    2.6515  -32.0984 P   0  0  0  0  0  0  0  0  0  0  0  0
   -8.6539    5.7148  -28.2865 C   0  0  0  0  0  0  0  0  0  0  0  0
   -8.7732    4.2649  -28.5660 C   0  0  0  0  0  0  0  0  0  0  0  0
   -6.0742    2.2737  -32.2892 O   0  0  0  0  0  0  0  0  0  0  0  0
   -8.3552    1.4371  -32.4517 O   0  0  0  0  0  0  0  0  0  0  0  0
  1  2  1  0
  1  5  1  0
  2  7  1  0
  3  5  1  0
  4  6  1  0
  5  8  1  0
  5  9  1  0
  6  7  1  0
M  END
$$$$
