
     RDKit          3D

 22 23  0  0  0  0  0  0  0  0999 V2000
    5.1542  -11.1541  -13.0593 C   0  0  0  0  0  0  0  0  0  0  0  0
    5.0705  -10.7822  -15.6150 O   0  0  0  0  0  0  0  0  0  0  0  0
    6.6469  -13.9466  -14.6510 O   0  0  0  0  0  0  0  0  0  0  0  0
    1.9846  -12.9805  -12.7514 C   0  0  0  0  0  0  0  0  0  0  0  0
    3.7743  -11.6034  -12.7138 C   0  0  0  0  0  0  0  0  0  0  0  0
    3.4672  -13.1300  -12.8155 C   0  0  0  0  0  0  0  0  0  0  0  0
    2.8918  -10.6879  -13.3702 O   0  0  0  0  0  0  0  0  0  0  0  0
    7.9950  -12.2906  -16.4624 C   0  0  0  0  0  0  0  0  0  0  0  0
    8.7878   -8.9647  -18.1446 C   0  0  0  0  0  0  0  0  0  0  0  0
    4.3621  -13.9398  -13.7420 C   0  0  0  0  0  0  0  0  0  0  0  0
    8.5794  -10.6875  -19.8288 C   0  0  0  0  0  0  0  0  0  0  0  0
    8.8371   -9.3530  -19.4976 C   0  0  0  0  0  0  0  0  0  0  0  0
    7.6308  -11.8847  -15.0795 C   0  0  0  0  0  0  0  0  0  0  0  0
    1.2759  -13.8856  -13.3378 O   0  0  0  0  0  0  0  0  0  0  0  0
    6.3003  -12.6053  -14.6854 C   0  0  0  0  0  0  0  0  0  0  0  0
    5.3367  -11.4235  -14.5095 C   0  0  0  0  0  0  0  0  0  0  0  0
    8.3186  -11.6011  -18.8246 C   0  0  0  0  0  0  0  0  0  0  0  0
    5.8121  -13.6222  -13.6004 C   0  0  0  0  0  0  0  0  0  0  0  0
    3.6311  -14.7597  -14.5354 O   0  0  0  0  0  0  0  0  0  0  0  0
    7.1666  -13.4280  -17.1039 C   0  0  0  0  0  0  0  0  0  0  0  0
    8.3004  -11.2375  -17.4755 C   0  0  0  0  0  0  0  0  0  0  0  0
    8.5338   -9.9041  -17.1624 C   0  0  0  0  0  0  0  0  0  0  0  0
  1  5  1  0
  1 16  1  0
  2 16  1  0
  3 15  1  0
  3 18  1  0
  4  6  1  0
  4 14  1  0
  5  6  1  0
  5  7  1  0
  6 10  1  0
  8 13  1  0
  8 20  1  0
  8 21  1  0
  9 12  2  0
  9 22  1  0
 10 18  1  0
 10 19  1  0
 11 12  1  0
 11 17  2  0
 13 15  1  0
 15 16  1  0
 17 21  1  0
 21 22  2  0
M  END
$$$$
